<?xml version="1.0"?>
<!-- generated on 2017-09-04 12:07:00.109422 by $Id: randomTrips.py 16365 2014-05-13 08:50:42Z namdre $ 
  options: -n CBD.net.xml -o CBD.trips.xml -e 1560
-->
<trips>
    <trip id="0" depart="0.00" from="198538930#0" to="210687143#15" />
    <trip id="1" depart="1.00" from="-22738997#3" to="222848790#3" />
    <trip id="2" depart="2.00" from="45482925#1" to="207298904#2" />
    <trip id="3" depart="3.00" from="131709238#3" to="314394242#7" />
    <trip id="4" depart="4.00" from="135952928#3" to="26431523#1" />
    <trip id="5" depart="5.00" from="33859138#1" to="46278051#1" />
    <trip id="6" depart="6.00" from="24590326#0" to="219979517#13" />
    <trip id="7" depart="7.00" from="19074376#0" to="-208642577#0" />
    <trip id="8" depart="8.00" from="283049122#3" to="-447871262#5" />
    <trip id="9" depart="9.00" from="-309519051" to="13728202#0" />
    <trip id="10" depart="10.00" from="217382822#14" to="11563322#0" />
    <trip id="11" depart="11.00" from="316166616#6" to="50193192#1" />
    <trip id="12" depart="12.00" from="7692547#3" to="31805979#0" />
    <trip id="13" depart="13.00" from="208652069#1" to="-28317354" />
    <trip id="14" depart="14.00" from="207300469#2" to="57007441#4" />
    <trip id="15" depart="15.00" from="41383215#3" to="210177006#3" />
    <trip id="16" depart="16.00" from="57007440#1" to="31831302#0" />
    <trip id="17" depart="17.00" from="24788554#0" to="197979802#5" />
    <trip id="18" depart="18.00" from="71080002" to="52140784#7" />
    <trip id="19" depart="19.00" from="207642000#12" to="-208642577#1" />
    <trip id="20" depart="20.00" from="26431243#5" to="316166609#45" />
    <trip id="21" depart="21.00" from="207884327#1" to="135952931#25" />
    <trip id="22" depart="22.00" from="71079915" to="46277261" />
    <trip id="23" depart="23.00" from="208653173#0" to="46865623" />
    <trip id="24" depart="24.00" from="134621272#2" to="210177007#0" />
    <trip id="25" depart="25.00" from="191658734#4" to="208659264#3" />
    <trip id="26" depart="26.00" from="45367826#3" to="-31805985#2" />
    <trip id="27" depart="27.00" from="46297669#4" to="-309165569#0" />
    <trip id="28" depart="28.00" from="26564451#2" to="22758374#2" />
    <trip id="29" depart="29.00" from="-222886574" to="-62260783" />
    <trip id="30" depart="30.00" from="292492928#1" to="-8038265#2" />
    <trip id="31" depart="31.00" from="60117383#8" to="-32921466#5" />
    <trip id="32" depart="32.00" from="-45307981#2" to="27704668#17" />
    <trip id="33" depart="33.00" from="46142153#2" to="-20920282#0" />
    <trip id="34" depart="34.00" from="-197845905#5" to="294284942#1" />
    <trip id="35" depart="35.00" from="43537777#3" to="-16073979#0" />
    <trip id="36" depart="36.00" from="316166393#1" to="27462781#3" />
    <trip id="37" depart="37.00" from="198874049#0" to="46228181#0" />
    <trip id="38" depart="38.00" from="449054488" to="258070010#1-AddedOnRampEdge" />
    <trip id="39" depart="39.00" from="45367826#0" to="131724929#2" />
    <trip id="40" depart="40.00" from="46279615" to="393558735#1" />
    <trip id="41" depart="41.00" from="159253194#0" to="27462659#1" />
    <trip id="42" depart="42.00" from="-26564451#1" to="-52142029" />
    <trip id="43" depart="43.00" from="-26431412" to="177440909#1" />
    <trip id="44" depart="44.00" from="62259735#4" to="45479900#1" />
    <trip id="45" depart="45.00" from="159253192#2" to="191523280#3" />
    <trip id="46" depart="46.00" from="25587204#2" to="391360154#1" />
    <trip id="47" depart="47.00" from="218671163" to="207830040#5" />
    <trip id="48" depart="48.00" from="70811748#12" to="-16159066" />
    <trip id="49" depart="49.00" from="19074376#0" to="24530854#1" />
    <trip id="50" depart="50.00" from="134621267#6" to="13908122" />
    <trip id="51" depart="51.00" from="354732100#2" to="376017259#2" />
    <trip id="52" depart="52.00" from="-52140784#9" to="45482353#1" />
    <trip id="53" depart="53.00" from="208487488#17" to="108715491#5" />
    <trip id="54" depart="54.00" from="405464562#1" to="-207642000#12" />
    <trip id="55" depart="55.00" from="17033695" to="56672823#3" />
    <trip id="56" depart="56.00" from="46865642#0" to="-62205977#4" />
    <trip id="57" depart="57.00" from="-24590272#0" to="-326172682#0" />
    <trip id="58" depart="58.00" from="135952925#0" to="-61014744#1" />
    <trip id="59" depart="59.00" from="314806665" to="45420815#1" />
    <trip id="60" depart="60.00" from="198874544#2" to="23909883#2" />
    <trip id="61" depart="61.00" from="207831779#8" to="134621272#1" />
    <trip id="62" depart="62.00" from="89909469#2" to="159252292#0" />
    <trip id="63" depart="63.00" from="7692547#8" to="207642000#2" />
    <trip id="64" depart="64.00" from="57007032#3" to="198874547" />
    <trip id="65" depart="65.00" from="71189363" to="26103721#1" />
    <trip id="66" depart="66.00" from="354732100#2" to="20918665#4" />
    <trip id="67" depart="67.00" from="208489244#15" to="316160690#2" />
    <trip id="68" depart="68.00" from="207300478#4" to="45479208#1" />
    <trip id="69" depart="69.00" from="32921466#1" to="17035874#0" />
    <trip id="70" depart="70.00" from="65057040#0" to="46296013#3" />
    <trip id="71" depart="71.00" from="-309519052" to="264389503#2" />
    <trip id="72" depart="72.00" from="316166609#22" to="287822402#4" />
    <trip id="73" depart="73.00" from="135953375#23" to="279989329#1" />
    <trip id="74" depart="74.00" from="430483491#11" to="386416108#5" />
    <trip id="75" depart="75.00" from="-16361186#1" to="208677471#1" />
    <trip id="76" depart="76.00" from="-43419738" to="131724922#2" />
    <trip id="77" depart="77.00" from="45762308#0" to="99069997#3" />
    <trip id="78" depart="78.00" from="22930586" to="315396023" />
    <trip id="79" depart="79.00" from="208652444#3" to="20240428#3" />
    <trip id="80" depart="80.00" from="33005147#3" to="57007440#26" />
    <trip id="81" depart="81.00" from="-43421067" to="207831779#8" />
    <trip id="82" depart="82.00" from="134620345#1" to="316166609#32" />
    <trip id="83" depart="83.00" from="-38315392" to="8038270#2" />
    <trip id="84" depart="84.00" from="314394242#3" to="209747362#5" />
    <trip id="85" depart="85.00" from="440275332#13" to="5072826#7" />
    <trip id="86" depart="86.00" from="207298903#8" to="-22739000" />
    <trip id="87" depart="87.00" from="505256329#6" to="67502663#2" />
    <trip id="88" depart="88.00" from="-13911660" to="485830402#4" />
    <trip id="89" depart="89.00" from="60725476#0" to="392201848#0" />
    <trip id="90" depart="90.00" from="-309155039" to="43537792" />
    <trip id="91" depart="91.00" from="32921453#3" to="135952929#0" />
    <trip id="92" depart="92.00" from="134620341#7" to="-8038270#1" />
    <trip id="93" depart="93.00" from="208676427#13" to="208643582#3" />
    <trip id="94" depart="94.00" from="386419596#23" to="252574043" />
    <trip id="95" depart="95.00" from="208659265#0" to="315567583#1" />
    <trip id="96" depart="96.00" from="-17036368" to="505273474" />
    <trip id="97" depart="97.00" from="30141789#1" to="429269929#5" />
    <trip id="98" depart="98.00" from="-45303937#1" to="50999660#2" />
    <trip id="99" depart="99.00" from="-45303937#0" to="17036171" />
    <trip id="100" depart="100.00" from="50596396#2" to="31805929#0" />
    <trip id="101" depart="101.00" from="8038155#1" to="57615041#1" />
    <trip id="102" depart="102.00" from="-62258503#1" to="260998678" />
    <trip id="103" depart="103.00" from="22664493#0" to="208505422#1" />
    <trip id="104" depart="104.00" from="198994314#2" to="-207884335#0" />
    <trip id="105" depart="105.00" from="211382322#2" to="50193196#1" />
    <trip id="106" depart="106.00" from="33803209#3" to="222851490#4" />
    <trip id="107" depart="107.00" from="-32455572#0" to="62258470#1" />
    <trip id="108" depart="108.00" from="235931747#0" to="46324976#18" />
    <trip id="109" depart="109.00" from="38613816#0" to="-31805929#1" />
    <trip id="110" depart="110.00" from="296383969#16" to="199649971#1" />
    <trip id="111" depart="111.00" from="-22820222" to="31831426#0" />
    <trip id="112" depart="112.00" from="108715490#7" to="39947804#2" />
    <trip id="113" depart="113.00" from="309347751#1" to="208795170#3" />
    <trip id="114" depart="114.00" from="207300478#4" to="46297669#0" />
    <trip id="115" depart="115.00" from="-26431410#1" to="33812468" />
    <trip id="116" depart="116.00" from="-23554495#1" to="56672815#3" />
    <trip id="117" depart="117.00" from="17035193" to="505256329#3" />
    <trip id="118" depart="118.00" from="207516094#2" to="235931746#1" />
    <trip id="119" depart="119.00" from="208793253#8" to="-24590272#0" />
    <trip id="120" depart="120.00" from="198005097#8" to="131724932#3" />
    <trip id="121" depart="121.00" from="70811748#8" to="424478458#5" />
    <trip id="122" depart="122.00" from="207884326#0" to="-208643582#2" />
    <trip id="123" depart="123.00" from="42300792#0" to="198005098#2" />
    <trip id="124" depart="124.00" from="57007441#5" to="-17037217#0" />
    <trip id="125" depart="125.00" from="-22820223" to="-31806035#0" />
    <trip id="126" depart="126.00" from="478465643" to="-197845905#6" />
    <trip id="127" depart="127.00" from="60725171#0" to="-440275332#11" />
    <trip id="128" depart="128.00" from="279989322#0" to="179614831#31" />
    <trip id="129" depart="129.00" from="231687583#0" to="33906874" />
    <trip id="130" depart="130.00" from="13813004#0" to="38613816#0" />
    <trip id="131" depart="131.00" from="207831778#1" to="-276433127#5" />
    <trip id="132" depart="132.00" from="-29020845" to="97792355#7" />
    <trip id="133" depart="133.00" from="-112933971" to="199649970#6" />
    <trip id="134" depart="134.00" from="14718888#1" to="208641736#10" />
    <trip id="135" depart="135.00" from="179614831#16" to="4817015#2" />
    <trip id="136" depart="136.00" from="56672798#0" to="45306670#4" />
    <trip id="137" depart="137.00" from="-8037581#0" to="249648592#1" />
    <trip id="138" depart="138.00" from="427764210#0" to="413591743#10" />
    <trip id="139" depart="139.00" from="231687583#0" to="207642000#14" />
    <trip id="140" depart="140.00" from="62110983#0" to="-13908288" />
    <trip id="141" depart="141.00" from="210368829#5" to="217382822#10" />
    <trip id="142" depart="142.00" from="208676422#0" to="60117383#14" />
    <trip id="143" depart="143.00" from="207300919#1" to="392940637#2" />
    <trip id="144" depart="144.00" from="429269883#1" to="-440275332#9" />
    <trip id="145" depart="145.00" from="131724945#4" to="198006959#8" />
    <trip id="146" depart="146.00" from="-24590242#3" to="391360153#4" />
    <trip id="147" depart="147.00" from="-51139423#0" to="-276437223#0" />
    <trip id="148" depart="148.00" from="159252292#10" to="28888213#0" />
    <trip id="149" depart="149.00" from="413591744#1" to="-45366738" />
    <trip id="150" depart="150.00" from="-120374160#1" to="62106235" />
    <trip id="151" depart="151.00" from="24593809#0" to="315404841" />
    <trip id="152" depart="152.00" from="-57007032#0" to="485830402#4" />
    <trip id="153" depart="153.00" from="279989319#6" to="-177788210#0" />
    <trip id="154" depart="154.00" from="228626805#0" to="46330919#1" />
    <trip id="155" depart="155.00" from="198547645" to="12559032" />
    <trip id="156" depart="156.00" from="208489244#4" to="206506959#7" />
    <trip id="157" depart="157.00" from="316628750#5" to="210368829#6" />
    <trip id="158" depart="158.00" from="238750851" to="-45366738" />
    <trip id="159" depart="159.00" from="208033310#3" to="61518677#2" />
    <trip id="160" depart="160.00" from="279989332" to="68862328#1" />
    <trip id="161" depart="161.00" from="50596400#1-AddedOnRampEdge" to="26833130#2" />
    <trip id="162" depart="162.00" from="310299783#0" to="23212187" />
    <trip id="163" depart="163.00" from="326747411#0" to="207831779#8" />
    <trip id="164" depart="164.00" from="135953468#2" to="45762335#0" />
    <trip id="165" depart="165.00" from="179614831#24" to="-14718896#0" />
    <trip id="166" depart="166.00" from="21652987#0" to="207277770#3" />
    <trip id="167" depart="167.00" from="208676425#1" to="-208642577#3" />
    <trip id="168" depart="168.00" from="159486912" to="131714613#1" />
    <trip id="169" depart="169.00" from="-309165572#0" to="131724962#0" />
    <trip id="170" depart="170.00" from="-16187957#1" to="413591742#10" />
    <trip id="171" depart="171.00" from="5035734#1" to="-447871262#9" />
    <trip id="172" depart="172.00" from="-14664538#0" to="28888213#1" />
    <trip id="173" depart="173.00" from="208652069#2" to="39451704#13" />
    <trip id="174" depart="174.00" from="198547646#0" to="296383969#16" />
    <trip id="175" depart="175.00" from="478465678#1" to="255866153#4" />
    <trip id="176" depart="176.00" from="424478458#5" to="46297669#4" />
    <trip id="177" depart="177.00" from="207300465#1" to="386878911#0" />
    <trip id="178" depart="178.00" from="217210409#6" to="20920276#5" />
    <trip id="179" depart="179.00" from="-24590272#2" to="177440909#0" />
    <trip id="180" depart="180.00" from="89909469#19" to="33005177#1" />
    <trip id="181" depart="181.00" from="395470600#2" to="4074822#4" />
    <trip id="182" depart="182.00" from="216569129#2" to="-11565284" />
    <trip id="183" depart="183.00" from="-315404840#1" to="27459958#6" />
    <trip id="184" depart="184.00" from="-61516505" to="405464562#1" />
    <trip id="185" depart="185.00" from="315229025#5" to="71081310#3" />
    <trip id="186" depart="186.00" from="-39799117" to="-5118207#0" />
    <trip id="187" depart="187.00" from="45407597#1" to="-59341393" />
    <trip id="188" depart="188.00" from="-43421425" to="207831636#0" />
    <trip id="189" depart="189.00" from="26103721#0" to="316166609#47" />
    <trip id="190" depart="190.00" from="27989240" to="412003162" />
    <trip id="191" depart="191.00" from="-46509244#1" to="198034078#6" />
    <trip id="192" depart="192.00" from="208795170#18" to="24706226#2" />
    <trip id="193" depart="193.00" from="-22930584#1" to="-20919413#2" />
    <trip id="194" depart="194.00" from="4306021#22" to="191005393#2" />
    <trip id="195" depart="195.00" from="33803209#4" to="316166609#28" />
    <trip id="196" depart="196.00" from="45482515#2" to="5095075#5" />
    <trip id="197" depart="197.00" from="69022736#2" to="131317554#2" />
    <trip id="198" depart="198.00" from="159253192#2" to="310299783#2" />
    <trip id="199" depart="199.00" from="57007027#0" to="61519316#4" />
    <trip id="200" depart="200.00" from="444840027#2" to="45367826#13" />
    <trip id="201" depart="201.00" from="134621272#4" to="-8037586" />
    <trip id="202" depart="202.00" from="215504906#3" to="-22739000" />
    <trip id="203" depart="203.00" from="60116730" to="326745779#0" />
    <trip id="204" depart="204.00" from="-313194883#1" to="214028938#1" />
    <trip id="205" depart="205.00" from="13728427" to="172634272#1" />
    <trip id="206" depart="206.00" from="222848790#0" to="69022733#0" />
    <trip id="207" depart="207.00" from="4768714#7" to="71188869#2" />
    <trip id="208" depart="208.00" from="187918254#1" to="5135006#0" />
    <trip id="209" depart="209.00" from="-32653230#2" to="342431866#0" />
    <trip id="210" depart="210.00" from="-45095786#3" to="217383025#0" />
    <trip id="211" depart="211.00" from="413591743#5" to="-314806665" />
    <trip id="212" depart="212.00" from="179614831#30" to="24531440#0" />
    <trip id="213" depart="213.00" from="291467733" to="4306021#27" />
    <trip id="214" depart="214.00" from="485830402#2" to="208793251#0" />
    <trip id="215" depart="215.00" from="70811699#4" to="61515723#2" />
    <trip id="216" depart="216.00" from="198538939#0" to="390557463#8" />
    <trip id="217" depart="217.00" from="310736220" to="-24531141" />
    <trip id="218" depart="218.00" from="13858293#1" to="315239276" />
    <trip id="219" depart="219.00" from="316166609#41" to="45420770#0" />
    <trip id="220" depart="220.00" from="430483491#4" to="309029172#6" />
    <trip id="221" depart="221.00" from="207831319#5" to="12279349#4" />
    <trip id="222" depart="222.00" from="207277768#5" to="61518388#0" />
    <trip id="223" depart="223.00" from="207831528#3" to="198034078#4" />
    <trip id="224" depart="224.00" from="-452006730" to="71079920#5" />
    <trip id="225" depart="225.00" from="314394243#1" to="33005116#1" />
    <trip id="226" depart="226.00" from="323916051#2" to="135953375#19" />
    <trip id="227" depart="227.00" from="-120374160#2" to="296383691#6" />
    <trip id="228" depart="228.00" from="-239023202#2" to="198005097#10" />
    <trip id="229" depart="229.00" from="-45367024" to="296136015#2" />
    <trip id="230" depart="230.00" from="-30179549#1" to="71079797#4" />
    <trip id="231" depart="231.00" from="-11565599" to="478465661#3" />
    <trip id="232" depart="232.00" from="45482949#1" to="69022736#7" />
    <trip id="233" depart="233.00" from="24706226#4" to="159253197#5" />
    <trip id="234" depart="234.00" from="33812467#0" to="45307981#2" />
    <trip id="235" depart="235.00" from="478465573#0" to="22820440#3" />
    <trip id="236" depart="236.00" from="43537775#2" to="-22738997#1" />
    <trip id="237" depart="237.00" from="208641736#10" to="376022660" />
    <trip id="238" depart="238.00" from="395470600#3" to="-80390796#2" />
    <trip id="239" depart="239.00" from="225873898" to="207277768#2" />
    <trip id="240" depart="240.00" from="62259757#3" to="391489713#7" />
    <trip id="241" depart="241.00" from="386419596#24" to="5035772#5" />
    <trip id="242" depart="242.00" from="391489713#0" to="33005156#1" />
    <trip id="243" depart="243.00" from="413591742#4" to="27877154" />
    <trip id="244" depart="244.00" from="61519148#13" to="296383691#4" />
    <trip id="245" depart="245.00" from="67502663#6" to="-8037586" />
    <trip id="246" depart="246.00" from="135952934#1" to="62258473#1" />
    <trip id="247" depart="247.00" from="427764210#0" to="-8038189#0" />
    <trip id="248" depart="248.00" from="454602696#0" to="60725476#0" />
    <trip id="249" depart="249.00" from="131709231#3" to="412569392#1" />
    <trip id="250" depart="250.00" from="505256329#13" to="45479877#3" />
    <trip id="251" depart="251.00" from="354732097#0" to="191523280#8" />
    <trip id="252" depart="252.00" from="8038270#5" to="-57007032#1" />
    <trip id="253" depart="253.00" from="207298914#2" to="505256327#11" />
    <trip id="254" depart="254.00" from="4768714#4" to="316166609#27" />
    <trip id="255" depart="255.00" from="427187339#3" to="52137278" />
    <trip id="256" depart="256.00" from="-208506749#2" to="62259757#17" />
    <trip id="257" depart="257.00" from="25587203#2" to="24590324#11" />
    <trip id="258" depart="258.00" from="-120374160#0" to="392201848#0" />
    <trip id="259" depart="259.00" from="208676427#3" to="-8038302#1" />
    <trip id="260" depart="260.00" from="45762910#1" to="134620345#1" />
    <trip id="261" depart="261.00" from="24430463#5" to="46298260#1" />
    <trip id="262" depart="262.00" from="-315404824" to="210368829#2" />
    <trip id="263" depart="263.00" from="199649971#0" to="201707230#0" />
    <trip id="264" depart="264.00" from="135953375#19" to="208653173#8" />
    <trip id="265" depart="265.00" from="17035881#1" to="46217002#0" />
    <trip id="266" depart="266.00" from="27008379#1" to="13367981#2" />
    <trip id="267" depart="267.00" from="236157842#0" to="393558728" />
    <trip id="268" depart="268.00" from="-8038270#4" to="131709935" />
    <trip id="269" depart="269.00" from="-24706226#5" to="71080100#4" />
    <trip id="270" depart="270.00" from="424478458#18" to="210687143#3" />
    <trip id="271" depart="271.00" from="211668281#4" to="296383691#1" />
    <trip id="272" depart="272.00" from="26832946" to="207642000#10" />
    <trip id="273" depart="273.00" from="62110837#2" to="210687143#20" />
    <trip id="274" depart="274.00" from="46228159#4" to="478465597" />
    <trip id="275" depart="275.00" from="218671162#19" to="235931746#0" />
    <trip id="276" depart="276.00" from="20240428#2" to="69968223#4" />
    <trip id="277" depart="277.00" from="108715491#4" to="131710575#3" />
    <trip id="278" depart="278.00" from="71079998" to="-207642000#4" />
    <trip id="279" depart="279.00" from="8038155#1" to="131724961#0" />
    <trip id="280" depart="280.00" from="310299782#1" to="45482168#2" />
    <trip id="281" depart="281.00" from="73759361#0" to="-45366081#1" />
    <trip id="282" depart="282.00" from="188589615#0" to="23060961#4" />
    <trip id="283" depart="283.00" from="131724955#2" to="22930584#2" />
    <trip id="284" depart="284.00" from="46278045#6" to="315567584#0" />
    <trip id="285" depart="285.00" from="315229025#5" to="24706228#1" />
    <trip id="286" depart="286.00" from="208498196#19" to="46276847" />
    <trip id="287" depart="287.00" from="207300478#1" to="190863997#0" />
    <trip id="288" depart="288.00" from="-62205977#0" to="61515709#0" />
    <trip id="289" depart="289.00" from="-35799196#0" to="14713696" />
    <trip id="290" depart="290.00" from="207884332#1" to="46324976#5" />
    <trip id="291" depart="291.00" from="-207884334#0" to="5118211#1" />
    <trip id="292" depart="292.00" from="254443130#2" to="-50998417#5" />
    <trip id="293" depart="293.00" from="45482926#2" to="207641073#0" />
    <trip id="294" depart="294.00" from="12558460#1" to="198005100#5" />
    <trip id="295" depart="295.00" from="45483062#2" to="198005097#15" />
    <trip id="296" depart="296.00" from="208498196#1" to="316166609#47" />
    <trip id="297" depart="297.00" from="50999541#1" to="42639916#4" />
    <trip id="298" depart="298.00" from="46141784#2" to="-176480949#1" />
    <trip id="299" depart="299.00" from="296383969#0" to="43421364#1" />
    <trip id="300" depart="300.00" from="316166610#2" to="198005098#7" />
    <trip id="301" depart="301.00" from="33005156#6" to="38698602#0" />
    <trip id="302" depart="302.00" from="45306408#4" to="315404832" />
    <trip id="303" depart="303.00" from="21656257#0" to="291575119#1" />
    <trip id="304" depart="304.00" from="-48331397" to="62106475#2" />
    <trip id="305" depart="305.00" from="61520574" to="13813232" />
    <trip id="306" depart="306.00" from="294896168#2" to="208652069#4" />
    <trip id="307" depart="307.00" from="62258520#0" to="309519050" />
    <trip id="308" depart="308.00" from="24590242#0" to="22963283#3" />
    <trip id="309" depart="309.00" from="10587498#1" to="46314314#0" />
    <trip id="310" depart="310.00" from="-28869736#1" to="43543432#2" />
    <trip id="311" depart="311.00" from="429269929#3" to="14662451#2" />
    <trip id="312" depart="312.00" from="279989328#4" to="14716370#0" />
    <trip id="313" depart="313.00" from="-23060962#1" to="62260217#2" />
    <trip id="314" depart="314.00" from="134621264#0" to="395470600#5" />
    <trip id="315" depart="315.00" from="-207642000#12" to="32921244#2" />
    <trip id="316" depart="316.00" from="45407603#1" to="16068943" />
    <trip id="317" depart="317.00" from="172405421#0" to="210687143#20" />
    <trip id="318" depart="318.00" from="11564945#1" to="-12476842#0" />
    <trip id="319" depart="319.00" from="45420768#0" to="60116670#11" />
    <trip id="320" depart="320.00" from="255866153#4" to="43419738" />
    <trip id="321" depart="321.00" from="57007440#19" to="310736217" />
    <trip id="322" depart="322.00" from="46228169#0" to="45368682" />
    <trip id="323" depart="323.00" from="-14356828#2" to="-276433127#4" />
    <trip id="324" depart="324.00" from="295485117#4" to="413505747#0" />
    <trip id="325" depart="325.00" from="33812466#0" to="32921200#1" />
    <trip id="326" depart="326.00" from="208678438#0" to="392940604#1" />
    <trip id="327" depart="327.00" from="17037217#0" to="31805933#0" />
    <trip id="328" depart="328.00" from="135952931#2" to="57007441#14" />
    <trip id="329" depart="329.00" from="26833197" to="478465633" />
    <trip id="330" depart="330.00" from="50999165#1" to="-276433128" />
    <trip id="331" depart="331.00" from="131724962#0" to="208489244#18" />
    <trip id="332" depart="332.00" from="33005139#0" to="429269873#5" />
    <trip id="333" depart="333.00" from="27704668#22" to="207300465#4" />
    <trip id="334" depart="334.00" from="46297971#2" to="27462781#3" />
    <trip id="335" depart="335.00" from="11565595#0" to="131724933#0" />
    <trip id="336" depart="336.00" from="39452439#5" to="-131709072" />
    <trip id="337" depart="337.00" from="33005139#1" to="33841010#3" />
    <trip id="338" depart="338.00" from="39452439#0" to="31805972#1" />
    <trip id="339" depart="339.00" from="71189322" to="57007037#2" />
    <trip id="340" depart="340.00" from="-315404843" to="13911665" />
    <trip id="341" depart="341.00" from="-13858297" to="39452439#11" />
    <trip id="342" depart="342.00" from="97792355#3" to="62260217#1" />
    <trip id="343" depart="343.00" from="60725171#0" to="131724966#5" />
    <trip id="344" depart="344.00" from="198005098#17" to="71079998" />
    <trip id="345" depart="345.00" from="-39799202#1" to="24590329#0" />
    <trip id="346" depart="346.00" from="-33803212" to="-69968223#3" />
    <trip id="347" depart="347.00" from="80390796#1" to="8038189#5" />
    <trip id="348" depart="348.00" from="57007439#1" to="208641736#3" />
    <trip id="349" depart="349.00" from="24530980" to="13858293#0" />
    <trip id="350" depart="350.00" from="-29020847#1" to="5035734#2" />
    <trip id="351" depart="351.00" from="131709238#9" to="10587423#5" />
    <trip id="352" depart="352.00" from="207883957#5" to="198538940#6" />
    <trip id="353" depart="353.00" from="364717112" to="131724930" />
    <trip id="354" depart="354.00" from="206507326#2" to="-32653230#1" />
    <trip id="355" depart="355.00" from="-295485117#4" to="316166610#4" />
    <trip id="356" depart="356.00" from="294284942#3" to="33005131#0" />
    <trip id="357" depart="357.00" from="-5035734#2" to="45367836#2" />
    <trip id="358" depart="358.00" from="279989319#2" to="46217008" />
    <trip id="359" depart="359.00" from="60725196#0" to="455680168#2" />
    <trip id="360" depart="360.00" from="134621262#3" to="50999621#5" />
    <trip id="361" depart="361.00" from="-26431243#2" to="71188884#12" />
    <trip id="362" depart="362.00" from="67502663#9" to="108715490#11" />
    <trip id="363" depart="363.00" from="377820035#1" to="309347483" />
    <trip id="364" depart="364.00" from="135952931#19" to="429269878#5" />
    <trip id="365" depart="365.00" from="-32921466#1" to="-24589915#1" />
    <trip id="366" depart="366.00" from="-443389262" to="172634272#5" />
    <trip id="367" depart="367.00" from="-447871262#8" to="424478458#3" />
    <trip id="368" depart="368.00" from="-27947858#1" to="62259757#3" />
    <trip id="369" depart="369.00" from="10587423#4" to="424478458#10" />
    <trip id="370" depart="370.00" from="386419596#2" to="135953375#0" />
    <trip id="371" depart="371.00" from="46324976#16" to="131724959#2" />
    <trip id="372" depart="372.00" from="39613114#1" to="4768714#7" />
    <trip id="373" depart="373.00" from="60116678#1+60117383#5" to="-31805900#1" />
    <trip id="374" depart="374.00" from="89909469#24" to="159252292#10" />
    <trip id="375" depart="375.00" from="-505256323#3" to="235931748#0" />
    <trip id="376" depart="376.00" from="458387034" to="46228181#4" />
    <trip id="377" depart="377.00" from="-503372632" to="505210570" />
    <trip id="378" depart="378.00" from="-207460361" to="22664494#1" />
    <trip id="379" depart="379.00" from="71188884#5" to="12558460#1" />
    <trip id="380" depart="380.00" from="427187339#2" to="40604042#0" />
    <trip id="381" depart="381.00" from="310736201#3" to="279989329#6" />
    <trip id="382" depart="382.00" from="11565595#2" to="208506442#1" />
    <trip id="383" depart="383.00" from="505256329#9" to="27462660#2" />
    <trip id="384" depart="384.00" from="-309165572#0" to="-207642000#7" />
    <trip id="385" depart="385.00" from="45415054#7" to="60116670#12" />
    <trip id="386" depart="386.00" from="13728202#1" to="-33106413" />
    <trip id="387" depart="387.00" from="-326172682#0" to="46142100#1" />
    <trip id="388" depart="388.00" from="46324976#11" to="43537786#2" />
    <trip id="389" depart="389.00" from="22664466#9" to="22664466#10" />
    <trip id="390" depart="390.00" from="208793252#1" to="24590326#8" />
    <trip id="391" depart="391.00" from="485830401#0" to="208487488#8" />
    <trip id="392" depart="392.00" from="-17037217#0" to="-217377197#0" />
    <trip id="393" depart="393.00" from="85526405#1" to="447871262#7" />
    <trip id="394" depart="394.00" from="134621264#3" to="316166610#2" />
    <trip id="395" depart="395.00" from="22963283#3" to="207300463#2" />
    <trip id="396" depart="396.00" from="315229024#6" to="46751499" />
    <trip id="397" depart="397.00" from="315396037#0" to="199429372#4" />
    <trip id="398" depart="398.00" from="57007440#4" to="45482949#3" />
    <trip id="399" depart="399.00" from="-7692547#4" to="386878912#9" />
    <trip id="400" depart="400.00" from="208793847#9" to="33005126#0" />
    <trip id="401" depart="401.00" from="46324976#7" to="208652067#4" />
    <trip id="402" depart="402.00" from="60725476#2" to="46218518#1" />
    <trip id="403" depart="403.00" from="207300919#3" to="391489713#2" />
    <trip id="404" depart="404.00" from="208659265#3" to="296383691#5" />
    <trip id="405" depart="405.00" from="310736198+310736199" to="7673719#1" />
    <trip id="406" depart="406.00" from="8038265#1" to="207516093#7" />
    <trip id="407" depart="407.00" from="46142153#2" to="42555571#0" />
    <trip id="408" depart="408.00" from="13813230#0" to="198736992#0" />
    <trip id="409" depart="409.00" from="179614831#1" to="134621267#1" />
    <trip id="410" depart="410.00" from="-14716364" to="208793847#22" />