<configuration>
    <input>
       <net-file value="flinders.net.xml"/>
       <route-files value="flinders.rou.xml"/>
    </input>
</configuration>
