<?xml version="1.0" encoding="UTF-8"?>

<!-- generated on Tue Sep  5 17:20:54 2017 by SUMO duarouter Version 0.30.0
<?xml version="1.0" encoding="UTF-8"?>

<configuration xmlns:xsi="http://www.w3.org/2001/XMLSchema-instance" xsi:noNamespaceSchemaLocation="http://sumo.dlr.de/xsd/duarouterConfiguration.xsd">

    <input>
        <net-file value="flinders.net.xml"/>
        <trip-files value="trips.trips.xml"/>
    </input>

    <output>
        <output-file value="flinders.rou.xml"/>
    </output>

    <processing>
        <ignore-errors value="true"/>
    </processing>

    <time>
        <begin value="0"/>
        <end value="2000.0"/>
    </time>

    <report>
        <no-warnings value="true"/>
        <no-step-log value="true"/>
    </report>

</configuration>
-->

<routes xmlns:xsi="http://www.w3.org/2001/XMLSchema-instance" xsi:noNamespaceSchemaLocation="http://sumo.dlr.de/xsd/routes_file.xsd">
    <vehicle id="2" depart="2.00">
        <route edges="-14 -16 -17 -21 -7 -4 -3 -12 -9 -11 -10 -6 -18 -15 -19"/>
    </vehicle>
    <vehicle id="6" depart="6.00">
        <route edges="-14 -16 -17"/>
    </vehicle>
    <vehicle id="7" depart="7.00">
        <route edges="-17 -21 -7 -4 -3 -12 -9 -11 -10 -6 -18 -15 -19 -5"/>
    </vehicle>
    <vehicle id="9" depart="9.00">
        <route edges="-17 -21 -7 -4 -3 -12 -9 -11 -10 -6 -18 -15 -19 -5"/>
    </vehicle>
    <vehicle id="12" depart="12.00">
        <route edges="-7 -4 -3 -12 -9 -11 -10 -6 -18 -15 -19 -5"/>
    </vehicle>
    <vehicle id="18" depart="18.00">
        <route edges="-2 -8 -20 -13 -14 -16 -17 -21 -7 -4 -3 -12 -9 -11 -10 -6 -18 -15 -19 -5"/>
    </vehicle>
    <vehicle id="19" depart="19.00">
        <route edges="-6 -18 -15 -19"/>
    </vehicle>
    <vehicle id="20" depart="20.00">
        <route edges="-2 -8 -20 -13 -14 -16 -17 -21 -7 -4 -3 -12 -9 -11 -10 -6 -18 -15 -19 -5 -1"/>
    </vehicle>
    <vehicle id="22" depart="22.00">
        <route edges="-2 -8 -20 -13 -14 -16 -17"/>
    </vehicle>
    <vehicle id="23" depart="23.00">
        <route edges="-11"/>
    </vehicle>
    <vehicle id="25" depart="25.00">
        <route edges="-6 -18 -15 -19 -5 -1"/>
    </vehicle>
    <vehicle id="26" depart="26.00">
        <route edges="-17 -21 -7 -4 -3 -12 -9 -11 -10 -6 -18 -15 -19"/>
    </vehicle>
    <vehicle id="29" depart="29.00">
        <route edges="-3 -12 -9 -11 -10 -6 -18 -15 -19 -5 -1"/>
    </vehicle>
    <vehicle id="30" depart="30.00">
        <route edges="-20 -13 -14 -16 -17 -21 -7 -4 -3 -12 -9 -11 -10 -6 -18 -15 -19"/>
    </vehicle>
    <vehicle id="31" depart="31.00">
        <route edges="-17 -21 -7 -4 -3 -12 -9 -11 -10 -6 -18 -15 -19 -5 -1"/>
    </vehicle>
    <vehicle id="33" depart="33.00">
        <route edges="-3 -12 -9 -11 -10 -6 -18 -15 -19 -5"/>
    </vehicle>
    <vehicle id="35" depart="35.00">
        <route edges="-11 -10 -6 -18 -15 -19"/>
    </vehicle>
    <vehicle id="36" depart="36.00">
        <route edges="-19 -5"/>
    </vehicle>
    <vehicle id="38" depart="38.00">
        <route edges="-17 -21 -7 -4 -3 -12 -9 -11 -10 -6 -18 -15 -19"/>
    </vehicle>
    <vehicle id="39" depart="39.00">
        <route edges="-17 -21 -7 -4 -3 -12 -9 -11 -10 -6 -18 -15 -19"/>
    </vehicle>
    <vehicle id="40" depart="40.00">
        <route edges="-16 -17 -21 -7 -4 -3 -12 -9 -11 -10 -6 -18 -15 -19 -5"/>
    </vehicle>
    <vehicle id="41" depart="41.00">
        <route edges="-19 -5 -1"/>
    </vehicle>
    <vehicle id="44" depart="44.00">
        <route edges="-17"/>
    </vehicle>
    <vehicle id="46" depart="46.00">
        <route edges="-20 -13 -14"/>
    </vehicle>
    <vehicle id="47" depart="47.00">
        <route edges="-2 -8 -20 -13 -14"/>
    </vehicle>
    <vehicle id="51" depart="51.00">
        <route edges="-14 -16 -17"/>
    </vehicle>
    <vehicle id="54" depart="54.00">
        <route edges="-10 -6 -18 -15 -19"/>
    </vehicle>
    <vehicle id="60" depart="60.00">
        <route edges="-14 -16 -17 -21 -7 -4"/>
    </vehicle>
    <vehicle id="61" depart="61.00">
        <route edges="-17 -21 -7 -4 -3 -12 -9 -11 -10 -6"/>
    </vehicle>
    <vehicle id="62" depart="62.00">
        <route edges="-17 -21 -7 -4 -3 -12 -9 -11 -10 -6 -18 -15 -19 -5"/>
    </vehicle>
    <vehicle id="63" depart="63.00">
        <route edges="-14 -16 -17 -21 -7 -4 -3 -12 -9 -11"/>
    </vehicle>
    <vehicle id="64" depart="64.00">
        <route edges="-17 -21 -7 -4 -3 -12 -9 -11 -10 -6 -18 -15 -19"/>
    </vehicle>
    <vehicle id="66" depart="66.00">
        <route edges="-16 -17 -21 -7 -4"/>
    </vehicle>
    <vehicle id="67" depart="67.00">
        <route edges="-6"/>
    </vehicle>
    <vehicle id="68" depart="68.00">
        <route edges="-6 -18 -15 -19 -5"/>
    </vehicle>
    <vehicle id="73" depart="73.00">
        <route edges="-17 -21 -7 -4 -3 -12 -9 -11 -10 -6 -18 -15 -19 -5 -1"/>
    </vehicle>
    <vehicle id="74" depart="74.00">
        <route edges="-8 -20 -13 -14 -16 -17"/>
    </vehicle>
    <vehicle id="76" depart="76.00">
        <route edges="-19 -5"/>
    </vehicle>
    <vehicle id="77" depart="77.00">
        <route edges="-13 -14 -16 -17 -21 -7 -4 -3 -12 -9 -11 -10 -6"/>
    </vehicle>
    <vehicle id="79" depart="79.00">
        <route edges="-6 -18 -15 -19"/>
    </vehicle>
    <vehicle id="80" depart="80.00">
        <route edges="-8 -20 -13 -14 -16 -17"/>
    </vehicle>
    <vehicle id="81" depart="81.00">
        <route edges="-8 -20 -13 -14 -16 -17 -21 -7 -4 -3 -12 -9 -11 -10 -6 -18 -15 -19"/>
    </vehicle>
    <vehicle id="82" depart="82.00">
        <route edges="-3 -12 -9 -11"/>
    </vehicle>
    <vehicle id="85" depart="85.00">
        <route edges="-10 -6 -18 -15 -19 -5"/>
    </vehicle>
    <vehicle id="86" depart="86.00">
        <route edges="-19"/>
    </vehicle>
    <vehicle id="87" depart="87.00">
        <route edges="-8 -20 -13 -14 -16 -17 -21 -7 -4 -3 -12 -9 -11 -10"/>
    </vehicle>
    <vehicle id="88" depart="88.00">
        <route edges="-14 -16 -17 -21 -7 -4 -3 -12 -9 -11 -10 -6 -18 -15 -19 -5 -1"/>
    </vehicle>
    <vehicle id="91" depart="91.00">
        <route edges="-8 -20 -13 -14 -16 -17 -21 -7 -4 -3 -12 -9 -11 -10 -6"/>
    </vehicle>
    <vehicle id="94" depart="94.00">
        <route edges="-14 -16 -17 -21 -7 -4 -3 -12 -9 -11 -10"/>
    </vehicle>
    <vehicle id="95" depart="95.00">
        <route edges="-10 -6 -18 -15 -19"/>
    </vehicle>
    <vehicle id="97" depart="97.00">
        <route edges="-14 -16 -17 -21 -7 -4 -3"/>
    </vehicle>
    <vehicle id="98" depart="98.00">
        <route edges="-17 -21 -7 -4 -3 -12 -9 -11 -10 -6 -18 -15 -19 -5"/>
    </vehicle>
    <vehicle id="100" depart="100.00">
        <route edges="-14 -16 -17 -21 -7 -4 -3 -12 -9 -11 -10 -6 -18 -15 -19"/>
    </vehicle>
    <vehicle id="103" depart="103.00">
        <route edges="-8 -20 -13 -14"/>
    </vehicle>
    <vehicle id="105" depart="105.00">
        <route edges="-6 -18 -15"/>
    </vehicle>
    <vehicle id="107" depart="107.00">
        <route edges="-11 -10 -6 -18 -15 -19"/>
    </vehicle>
    <vehicle id="108" depart="108.00">
        <route edges="-14 -16 -17"/>
    </vehicle>
    <vehicle id="109" depart="109.00">
        <route edges="-4 -3 -12 -9 -11 -10 -6"/>
    </vehicle>
    <vehicle id="112" depart="112.00">
        <route edges="-8 -20 -13 -14 -16 -17 -21 -7"/>
    </vehicle>
    <vehicle id="115" depart="115.00">
        <route edges="-17 -21 -7 -4"/>
    </vehicle>
    <vehicle id="116" depart="116.00">
        <route edges="-19"/>
    </vehicle>
    <vehicle id="117" depart="117.00">
        <route edges="-16 -17 -21 -7 -4 -3 -12 -9 -11 -10 -6 -18 -15 -19 -5"/>
    </vehicle>
    <vehicle id="119" depart="119.00">
        <route edges="-14"/>
    </vehicle>
    <vehicle id="120" depart="120.00">
        <route edges="-11"/>
    </vehicle>
    <vehicle id="123" depart="123.00">
        <route edges="-14 -16 -17 -21 -7 -4 -3"/>
    </vehicle>
    <vehicle id="127" depart="127.00">
        <route edges="-6 -18 -15 -19 -5"/>
    </vehicle>
    <vehicle id="129" depart="129.00">
        <route edges="-11 -10"/>
    </vehicle>
    <vehicle id="130" depart="130.00">
        <route edges="-2 -8 -20 -13 -14"/>
    </vehicle>
    <vehicle id="132" depart="132.00">
        <route edges="-8 -20 -13 -14"/>
    </vehicle>
    <vehicle id="133" depart="133.00">
        <route edges="-20 -13 -14 -16 -17"/>
    </vehicle>
    <vehicle id="135" depart="135.00">
        <route edges="-2 -8 -20 -13 -14"/>
    </vehicle>
    <vehicle id="137" depart="137.00">
        <route edges="-20 -13 -14 -16 -17 -21 -7 -4 -3 -12 -9 -11 -10 -6"/>
    </vehicle>
    <vehicle id="139" depart="139.00">
        <route edges="-14 -16 -17 -21 -7 -4 -3 -12 -9 -11"/>
    </vehicle>
    <vehicle id="140" depart="140.00">
        <route edges="-19 -5"/>
    </vehicle>
    <vehicle id="142" depart="142.00">
        <route edges="-4 -3 -12 -9 -11 -10 -6 -18 -15 -19"/>
    </vehicle>
    <vehicle id="145" depart="145.00">
        <route edges="-3 -12 -9 -11"/>
    </vehicle>
    <vehicle id="147" depart="147.00">
        <route edges="-17 -21 -7 -4 -3 -12 -9 -11 -10 -6"/>
    </vehicle>
    <vehicle id="149" depart="149.00">
        <route edges="-6 -18 -15 -19"/>
    </vehicle>
    <vehicle id="150" depart="150.00">
        <route edges="-8 -20 -13 -14 -16 -17 -21 -7 -4 -3 -12 -9 -11 -10 -6 -18"/>
    </vehicle>
    <vehicle id="152" depart="152.00">
        <route edges="-14 -16 -17 -21 -7 -4 -3 -12 -9 -11"/>
    </vehicle>
    <vehicle id="154" depart="154.00">
        <route edges="-2 -8"/>
    </vehicle>
    <vehicle id="155" depart="155.00">
        <route edges="-19"/>
    </vehicle>
    <vehicle id="156" depart="156.00">
        <route edges="-2 -8 -20 -13 -14 -16 -17 -21 -7 -4 -3 -12 -9"/>
    </vehicle>
    <vehicle id="157" depart="157.00">
        <route edges="-17 -21 -7 -4 -3 -12 -9 -11 -10 -6 -18 -15 -19 -5 -1"/>
    </vehicle>
    <vehicle id="158" depart="158.00">
        <route edges="-14 -16 -17"/>
    </vehicle>
    <vehicle id="159" depart="159.00">
        <route edges="-4 -3 -12 -9 -11 -10 -6 -18 -15 -19"/>
    </vehicle>
    <vehicle id="161" depart="161.00">
        <route edges="-2 -8 -20 -13 -14 -16 -17 -21 -7 -4 -3 -12 -9 -11"/>
    </vehicle>
    <vehicle id="163" depart="163.00">
        <route edges="-2 -8 -20 -13 -14 -16 -17 -21 -7 -4 -3 -12 -9 -11 -10 -6 -18 -15 -19"/>
    </vehicle>
    <vehicle id="164" depart="164.00">
        <route edges="-14 -16 -17 -21 -7 -4 -3 -12 -9 -11 -10 -6 -18 -15 -19 -5 -1"/>
    </vehicle>
    <vehicle id="165" depart="165.00">
        <route edges="-8 -20 -13 -14 -16 -17 -21 -7 -4 -3 -12 -9 -11 -10 -6"/>
    </vehicle>
    <vehicle id="166" depart="166.00">
        <route edges="-8 -20 -13 -14 -16"/>
    </vehicle>
    <vehicle id="167" depart="167.00">
        <route edges="-17 -21 -7 -4 -3 -12 -9 -11 -10 -6 -18 -15 -19 -5 -1"/>
    </vehicle>
    <vehicle id="168" depart="168.00">
        <route edges="-2 -8 -20 -13 -14 -16 -17 -21 -7 -4 -3 -12 -9 -11 -10 -6 -18 -15 -19"/>
    </vehicle>
    <vehicle id="169" depart="169.00">
        <route edges="-2 -8 -20 -13 -14 -16 -17 -21 -7 -4 -3 -12 -9 -11 -10 -6 -18 -15 -19"/>
    </vehicle>
    <vehicle id="170" depart="170.00">
        <route edges="-8 -20 -13 -14 -16 -17 -21 -7 -4 -3 -12 -9 -11 -10 -6"/>
    </vehicle>
    <vehicle id="175" depart="175.00">
        <route edges="-10 -6 -18 -15 -19 -5 -1"/>
    </vehicle>
    <vehicle id="177" depart="177.00">
        <route edges="-14 -16 -17 -21 -7 -4 -3 -12 -9 -11 -10"/>
    </vehicle>
    <vehicle id="178" depart="178.00">
        <route edges="-6"/>
    </vehicle>
    <vehicle id="181" depart="181.00">
        <route edges="-8 -20 -13 -14 -16 -17 -21 -7 -4 -3 -12 -9 -11 -10 -6 -18 -15 -19 -5 -1"/>
    </vehicle>
    <vehicle id="185" depart="185.00">
        <route edges="-4 -3 -12 -9 -11 -10 -6 -18"/>
    </vehicle>
    <vehicle id="188" depart="188.00">
        <route edges="-2 -8 -20 -13 -14 -16 -17 -21 -7 -4 -3 -12 -9 -11 -10 -6 -18 -15 -19"/>
    </vehicle>
    <vehicle id="189" depart="189.00">
        <route edges="-20 -13 -14 -16 -17 -21 -7 -4 -3 -12 -9 -11 -10 -6 -18 -15 -19"/>
    </vehicle>
    <vehicle id="190" depart="190.00">
        <route edges="-8 -20 -13 -14 -16 -17"/>
    </vehicle>
    <vehicle id="191" depart="191.00">
        <route edges="-8 -20 -13 -14 -16 -17 -21 -7 -4 -3 -12 -9 -11 -10 -6 -18 -15 -19"/>
    </vehicle>
    <vehicle id="192" depart="192.00">
        <route edges="-16 -17 -21 -7 -4 -3 -12 -9 -11"/>
    </vehicle>
    <vehicle id="193" depart="193.00">
        <route edges="-17 -21 -7 -4 -3 -12 -9 -11 -10 -6"/>
    </vehicle>
    <vehicle id="194" depart="194.00">
        <route edges="-2 -8 -20 -13 -14 -16 -17 -21 -7 -4 -3 -12 -9 -11 -10 -6 -18 -15 -19 -5"/>
    </vehicle>
    <vehicle id="195" depart="195.00">
        <route edges="-14 -16 -17"/>
    </vehicle>
    <vehicle id="197" depart="197.00">
        <route edges="-3 -12 -9 -11 -10 -6"/>
    </vehicle>
    <vehicle id="199" depart="199.00">
        <route edges="-17 -21 -7 -4 -3 -12 -9 -11"/>
    </vehicle>
    <vehicle id="200" depart="200.00">
        <route edges="-3"/>
    </vehicle>
    <vehicle id="210" depart="210.00">
        <route edges="-17 -21 -7 -4 -3 -12 -9 -11 -10 -6 -18 -15 -19"/>
    </vehicle>
    <vehicle id="213" depart="213.00">
        <route edges="-2 -8 -20 -13 -14 -16 -17 -21 -7 -4 -3 -12 -9 -11 -10 -6"/>
    </vehicle>
    <vehicle id="216" depart="216.00">
        <route edges="-20 -13 -14 -16 -17 -21 -7 -4 -3 -12 -9 -11 -10 -6 -18 -15 -19"/>
    </vehicle>
    <vehicle id="217" depart="217.00">
        <route edges="-14 -16 -17 -21 -7 -4 -3 -12 -9 -11 -10 -6 -18 -15 -19"/>
    </vehicle>
    <vehicle id="221" depart="221.00">
        <route edges="-14 -16 -17"/>
    </vehicle>
    <vehicle id="222" depart="222.00">
        <route edges="-14 -16 -17 -21 -7 -4 -3 -12 -9 -11 -10 -6 -18 -15 -19"/>
    </vehicle>
    <vehicle id="223" depart="223.00">
        <route edges="-11 -10 -6"/>
    </vehicle>
    <vehicle id="224" depart="224.00">
        <route edges="-14 -16 -17 -21 -7 -4 -3 -12 -9 -11 -10 -6"/>
    </vehicle>
    <vehicle id="226" depart="226.00">
        <route edges="-20 -13 -14 -16 -17 -21 -7 -4 -3 -12 -9 -11 -10 -6 -18 -15 -19 -5 -1"/>
    </vehicle>
    <vehicle id="227" depart="227.00">
        <route edges="-14 -16 -17 -21 -7 -4 -3 -12 -9 -11 -10 -6 -18 -15 -19 -5"/>
    </vehicle>
    <vehicle id="228" depart="228.00">
        <route edges="-14 -16 -17 -21 -7 -4 -3 -12 -9 -11 -10 -6 -18 -15 -19 -5"/>
    </vehicle>
    <vehicle id="229" depart="229.00">
        <route edges="-3 -12 -9 -11 -10 -6"/>
    </vehicle>
    <vehicle id="230" depart="230.00">
        <route edges="-20 -13 -14 -16 -17 -21 -7"/>
    </vehicle>
    <vehicle id="231" depart="231.00">
        <route edges="-20 -13 -14 -16 -17 -21 -7 -4 -3 -12 -9 -11 -10 -6 -18 -15 -19"/>
    </vehicle>
    <vehicle id="232" depart="232.00">
        <route edges="-17 -21 -7 -4 -3 -12 -9 -11 -10"/>
    </vehicle>
    <vehicle id="235" depart="235.00">
        <route edges="-17 -21 -7 -4 -3 -12 -9 -11 -10 -6"/>
    </vehicle>
    <vehicle id="236" depart="236.00">
        <route edges="-17 -21 -7 -4 -3 -12 -9 -11 -10 -6 -18"/>
    </vehicle>
    <vehicle id="237" depart="237.00">
        <route edges="-14 -16 -17 -21 -7 -4 -3 -12 -9 -11 -10 -6 -18 -15 -19 -5"/>
    </vehicle>
    <vehicle id="239" depart="239.00">
        <route edges="-3 -12 -9 -11 -10 -6 -18 -15 -19"/>
    </vehicle>
    <vehicle id="240" depart="240.00">
        <route edges="-14 -16 -17 -21 -7 -4 -3 -12 -9 -11 -10 -6"/>
    </vehicle>
    <vehicle id="243" depart="243.00">
        <route edges="-10 -6 -18 -15 -19"/>
    </vehicle>
    <vehicle id="246" depart="246.00">
        <route edges="-17 -21 -7 -4 -3 -12 -9 -11 -10 -6"/>
    </vehicle>
    <vehicle id="248" depart="248.00">
        <route edges="-6 -18 -15 -19 -5 -1"/>
    </vehicle>
    <vehicle id="249" depart="249.00">
        <route edges="-14 -16 -17 -21 -7 -4 -3 -12 -9 -11 -10 -6 -18 -15 -19 -5"/>
    </vehicle>
    <vehicle id="250" depart="250.00">
        <route edges="-17 -21 -7 -4 -3 -12 -9 -11 -10 -6"/>
    </vehicle>
    <vehicle id="253" depart="253.00">
        <route edges="-6 -18 -15 -19"/>
    </vehicle>
    <vehicle id="254" depart="254.00">
        <route edges="-20 -13 -14 -16 -17 -21 -7 -4 -3 -12 -9 -11 -10 -6 -18"/>
    </vehicle>
    <vehicle id="255" depart="255.00">
        <route edges="-19"/>
    </vehicle>
    <vehicle id="257" depart="257.00">
        <route edges="-11 -10"/>
    </vehicle>
    <vehicle id="259" depart="259.00">
        <route edges="-20 -13 -14 -16 -17 -21 -7 -4 -3 -12 -9 -11 -10 -6"/>
    </vehicle>
    <vehicle id="260" depart="260.00">
        <route edges="-17 -21 -7"/>
    </vehicle>
    <vehicle id="261" depart="261.00">
        <route edges="-6"/>
    </vehicle>
    <vehicle id="262" depart="262.00">
        <route edges="-2 -8 -20 -13 -14 -16 -17 -21 -7 -4 -3 -12 -9 -11"/>
    </vehicle>
    <vehicle id="266" depart="266.00">
        <route edges="-17"/>
    </vehicle>
    <vehicle id="267" depart="267.00">
        <route edges="-2 -8"/>
    </vehicle>
    <vehicle id="268" depart="268.00">
        <route edges="-2 -8 -20 -13 -14 -16 -17 -21 -7"/>
    </vehicle>
    <vehicle id="272" depart="272.00">
        <route edges="-17"/>
    </vehicle>
    <vehicle id="274" depart="274.00">
        <route edges="-17 -21 -7 -4 -3 -12 -9 -11 -10 -6 -18 -15 -19 -5"/>
    </vehicle>
    <vehicle id="276" depart="276.00">
        <route edges="-17 -21 -7 -4 -3 -12 -9 -11 -10"/>
    </vehicle>
    <vehicle id="277" depart="277.00">
        <route edges="-8 -20 -13 -14 -16 -17 -21 -7 -4 -3 -12 -9 -11 -10 -6 -18 -15 -19"/>
    </vehicle>
    <vehicle id="278" depart="278.00">
        <route edges="-14"/>
    </vehicle>
    <vehicle id="280" depart="280.00">
        <route edges="-8 -20"/>
    </vehicle>
    <vehicle id="283" depart="283.00">
        <route edges="-17 -21 -7"/>
    </vehicle>
    <vehicle id="285" depart="285.00">
        <route edges="-11 -10 -6"/>
    </vehicle>
    <vehicle id="286" depart="286.00">
        <route edges="-14"/>
    </vehicle>
    <vehicle id="290" depart="290.00">
        <route edges="-4 -3 -12 -9 -11 -10 -6 -18 -15 -19"/>
    </vehicle>
    <vehicle id="291" depart="291.00">
        <route edges="-8 -20 -13 -14 -16 -17"/>
    </vehicle>
    <vehicle id="295" depart="295.00">
        <route edges="-14 -16 -17 -21 -7 -4 -3 -12 -9 -11 -10 -6"/>
    </vehicle>
    <vehicle id="296" depart="296.00">
        <route edges="-14 -16 -17 -21 -7 -4"/>
    </vehicle>
    <vehicle id="297" depart="297.00">
        <route edges="-16 -17"/>
    </vehicle>
    <vehicle id="299" depart="299.00">
        <route edges="-6 -18 -15 -19"/>
    </vehicle>
    <vehicle id="302" depart="302.00">
        <route edges="-14"/>
    </vehicle>
    <vehicle id="305" depart="305.00">
        <route edges="-8 -20 -13 -14"/>
    </vehicle>
    <vehicle id="306" depart="306.00">
        <route edges="-19 -5"/>
    </vehicle>
    <vehicle id="308" depart="308.00">
        <route edges="-17"/>
    </vehicle>
    <vehicle id="309" depart="309.00">
        <route edges="-18 -15 -19"/>
    </vehicle>
    <vehicle id="310" depart="310.00">
        <route edges="-17 -21 -7 -4 -3 -12 -9 -11 -10 -6 -18 -15 -19 -5 -1"/>
    </vehicle>
    <vehicle id="312" depart="312.00">
        <route edges="-8 -20 -13 -14 -16 -17"/>
    </vehicle>
    <vehicle id="313" depart="313.00">
        <route edges="-8 -20 -13 -14 -16 -17 -21 -7 -4 -3 -12 -9 -11 -10 -6 -18 -15 -19"/>
    </vehicle>
    <vehicle id="315" depart="315.00">
        <route edges="-17 -21 -7 -4 -3 -12 -9 -11"/>
    </vehicle>
    <vehicle id="316" depart="316.00">
        <route edges="-6 -18 -15 -19"/>
    </vehicle>
    <vehicle id="317" depart="317.00">
        <route edges="-17 -21 -7 -4 -3 -12 -9 -11 -10 -6"/>
    </vehicle>
    <vehicle id="319" depart="319.00">
        <route edges="-8 -20"/>
    </vehicle>
    <vehicle id="320" depart="320.00">
        <route edges="-14 -16 -17 -21 -7 -4 -3 -12 -9 -11 -10 -6 -18 -15 -19"/>
    </vehicle>
    <vehicle id="321" depart="321.00">
        <route edges="-20 -13 -14 -16 -17 -21 -7 -4 -3 -12 -9 -11 -10 -6"/>
    </vehicle>
    <vehicle id="322" depart="322.00">
        <route edges="-6"/>
    </vehicle>
    <vehicle id="325" depart="325.00">
        <route edges="-20 -13 -14 -16 -17 -21 -7 -4 -3 -12 -9 -11 -10 -6"/>
    </vehicle>
    <vehicle id="327" depart="327.00">
        <route edges="-6"/>
    </vehicle>
    <vehicle id="328" depart="328.00">
        <route edges="-6"/>
    </vehicle>
    <vehicle id="330" depart="330.00">
        <route edges="-6 -18"/>
    </vehicle>
    <vehicle id="331" depart="331.00">
        <route edges="-16 -17"/>
    </vehicle>
    <vehicle id="332" depart="332.00">
        <route edges="-19 -5 -1"/>
    </vehicle>
    <vehicle id="333" depart="333.00">
        <route edges="-7 -4 -3 -12 -9 -11 -10"/>
    </vehicle>
    <vehicle id="334" depart="334.00">
        <route edges="-2 -8 -20 -13 -14 -16 -17 -21 -7 -4"/>
    </vehicle>
    <vehicle id="335" depart="335.00">
        <route edges="-20 -13 -14 -16 -17 -21 -7 -4 -3 -12 -9 -11 -10 -6"/>
    </vehicle>
    <vehicle id="336" depart="336.00">
        <route edges="-16"/>
    </vehicle>
    <vehicle id="337" depart="337.00">
        <route edges="-6 -18 -15 -19"/>
    </vehicle>
    <vehicle id="338" depart="338.00">
        <route edges="-17 -21 -7 -4 -3 -12 -9 -11 -10 -6 -18 -15 -19 -5 -1"/>
    </vehicle>
    <vehicle id="339" depart="339.00">
        <route edges="-4 -3"/>
    </vehicle>
    <vehicle id="340" depart="340.00">
        <route edges="-6 -18 -15 -19 -5"/>
    </vehicle>
    <vehicle id="341" depart="341.00">
        <route edges="-2 -8 -20 -13 -14 -16 -17 -21 -7 -4 -3 -12 -9 -11 -10 -6"/>
    </vehicle>
    <vehicle id="342" depart="342.00">
        <route edges="-17"/>
    </vehicle>
    <vehicle id="343" depart="343.00">
        <route edges="-6 -18 -15 -19"/>
    </vehicle>
    <vehicle id="344" depart="344.00">
        <route edges="-2 -8 -20 -13 -14 -16 -17 -21 -7 -4 -3 -12 -9 -11 -10 -6 -18 -15 -19"/>
    </vehicle>
    <vehicle id="345" depart="345.00">
        <route edges="-14"/>
    </vehicle>
    <vehicle id="346" depart="346.00">
        <route edges="-6"/>
    </vehicle>
    <vehicle id="347" depart="347.00">
        <route edges="-19"/>
    </vehicle>
    <vehicle id="348" depart="348.00">
        <route edges="-2 -8 -20 -13 -14 -16 -17 -21 -7 -4 -3 -12 -9 -11 -10 -6 -18"/>
    </vehicle>
    <vehicle id="349" depart="349.00">
        <route edges="-20 -13 -14 -16 -17"/>
    </vehicle>
    <vehicle id="350" depart="350.00">
        <route edges="-11 -10 -6"/>
    </vehicle>
    <vehicle id="352" depart="352.00">
        <route edges="-20"/>
    </vehicle>
    <vehicle id="354" depart="354.00">
        <route edges="-20 -13 -14 -16"/>
    </vehicle>
    <vehicle id="355" depart="355.00">
        <route edges="-4 -3 -12 -9 -11 -10 -6 -18 -15 -19"/>
    </vehicle>
    <vehicle id="356" depart="356.00">
        <route edges="-16 -17 -21 -7 -4 -3 -12 -9 -11 -10 -6 -18 -15 -19"/>
    </vehicle>
    <vehicle id="357" depart="357.00">
        <route edges="-10 -6"/>
    </vehicle>
    <vehicle id="359" depart="359.00">
        <route edges="-17"/>
    </vehicle>
    <vehicle id="363" depart="363.00">
        <route edges="-16 -17 -21 -7 -4 -3"/>
    </vehicle>
    <vehicle id="364" depart="364.00">
        <route edges="-14 -16 -17 -21 -7 -4 -3 -12 -9 -11"/>
    </vehicle>
    <vehicle id="365" depart="365.00">
        <route edges="-8 -20 -13 -14"/>
    </vehicle>
    <vehicle id="368" depart="368.00">
        <route edges="-2 -8 -20 -13 -14 -16 -17 -21 -7 -4 -3 -12 -9 -11 -10"/>
    </vehicle>
    <vehicle id="370" depart="370.00">
        <route edges="-8 -20 -13 -14"/>
    </vehicle>
    <vehicle id="371" depart="371.00">
        <route edges="-17 -21 -7 -4 -3 -12 -9 -11 -10 -6 -18 -15 -19"/>
    </vehicle>
    <vehicle id="372" depart="372.00">
        <route edges="-6 -18 -15 -19"/>
    </vehicle>
    <vehicle id="373" depart="373.00">
        <route edges="-2 -8 -20 -13 -14 -16 -17"/>
    </vehicle>
    <vehicle id="376" depart="376.00">
        <route edges="-2 -8 -20 -13 -14 -16 -17 -21 -7 -4 -3 -12 -9 -11 -10"/>
    </vehicle>
    <vehicle id="378" depart="378.00">
        <route edges="-8 -20 -13 -14 -16 -17 -21 -7 -4 -3 -12 -9 -11 -10 -6 -18 -15 -19"/>
    </vehicle>
    <vehicle id="379" depart="379.00">
        <route edges="-18 -15 -19"/>
    </vehicle>
    <vehicle id="384" depart="384.00">
        <route edges="-8 -20 -13 -14 -16 -17 -21 -7 -4 -3 -12 -9 -11 -10 -6 -18 -15 -19 -5 -1"/>
    </vehicle>
    <vehicle id="385" depart="385.00">
        <route edges="-17 -21 -7 -4 -3 -12 -9 -11 -10 -6 -18 -15 -19"/>
    </vehicle>
    <vehicle id="386" depart="386.00">
        <route edges="-14 -16 -17 -21 -7 -4 -3 -12 -9 -11 -10"/>
    </vehicle>
    <vehicle id="387" depart="387.00">
        <route edges="-8 -20 -13 -14 -16 -17 -21 -7 -4 -3 -12 -9 -11 -10 -6 -18 -15 -19 -5 -1"/>
    </vehicle>
    <vehicle id="390" depart="390.00">
        <route edges="-17 -21 -7 -4 -3 -12 -9 -11 -10 -6 -18 -15 -19"/>
    </vehicle>
    <vehicle id="392" depart="392.00">
        <route edges="-16 -17"/>
    </vehicle>
    <vehicle id="394" depart="394.00">
        <route edges="-9 -11 -10 -6 -18 -15 -19"/>
    </vehicle>
    <vehicle id="396" depart="396.00">
        <route edges="-19"/>
    </vehicle>
    <vehicle id="398" depart="398.00">
        <route edges="-2 -8 -20 -13 -14 -16 -17 -21 -7 -4 -3 -12 -9 -11 -10 -6 -18 -15 -19"/>
    </vehicle>
    <vehicle id="399" depart="399.00">
        <route edges="-10 -6 -18 -15 -19"/>
    </vehicle>
    <vehicle id="403" depart="403.00">
        <route edges="-2 -8 -20 -13 -14 -16 -17"/>
    </vehicle>
    <vehicle id="405" depart="405.00">
        <route edges="-17"/>
    </vehicle>
    <vehicle id="406" depart="406.00">
        <route edges="-8 -20 -13 -14 -16 -17"/>
    </vehicle>
    <vehicle id="407" depart="407.00">
        <route edges="-19"/>
    </vehicle>
    <vehicle id="408" depart="408.00">
        <route edges="-8 -20 -13 -14 -16 -17 -21 -7 -4 -3 -12 -9 -11 -10 -6 -18 -15 -19"/>
    </vehicle>
    <vehicle id="411" depart="411.00">
        <route edges="-8 -20"/>
    </vehicle>
    <vehicle id="412" depart="412.00">
        <route edges="-6 -18 -15 -19"/>
    </vehicle>
    <vehicle id="418" depart="418.00">
        <route edges="-18"/>
    </vehicle>
    <vehicle id="419" depart="419.00">
        <route edges="-13 -14 -16 -17 -21 -7 -4 -3 -12 -9 -11 -10 -6 -18 -15 -19"/>
    </vehicle>
    <vehicle id="420" depart="420.00">
        <route edges="-6 -18 -15 -19"/>
    </vehicle>
    <vehicle id="421" depart="421.00">
        <route edges="-17 -21 -7 -4 -3 -12 -9 -11 -10 -6 -18 -15 -19"/>
    </vehicle>
    <vehicle id="422" depart="422.00">
        <route edges="-8 -20 -13 -14 -16 -17 -21 -7 -4 -3 -12 -9 -11 -10 -6 -18 -15 -19 -5 -1"/>
    </vehicle>
    <vehicle id="423" depart="423.00">
        <route edges="-10 -6"/>
    </vehicle>
    <vehicle id="429" depart="429.00">
        <route edges="-17 -21 -7 -4 -3 -12 -9 -11 -10 -6 -18 -15 -19 -5"/>
    </vehicle>
    <vehicle id="435" depart="435.00">
        <route edges="-6 -18 -15 -19 -5 -1"/>
    </vehicle>
    <vehicle id="436" depart="436.00">
        <route edges="-14 -16 -17 -21 -7 -4 -3 -12 -9 -11 -10 -6 -18"/>
    </vehicle>
    <vehicle id="437" depart="437.00">
        <route edges="-3 -12 -9 -11 -10 -6 -18 -15 -19"/>
    </vehicle>
    <vehicle id="438" depart="438.00">
        <route edges="-16 -17 -21 -7 -4 -3 -12 -9 -11 -10 -6 -18 -15 -19"/>
    </vehicle>
    <vehicle id="439" depart="439.00">
        <route edges="-14 -16 -17 -21 -7 -4 -3 -12 -9 -11 -10 -6"/>
    </vehicle>
    <vehicle id="440" depart="440.00">
        <route edges="-9 -11 -10 -6 -18 -15 -19"/>
    </vehicle>
    <vehicle id="442" depart="442.00">
        <route edges="-8 -20 -13 -14"/>
    </vehicle>
    <vehicle id="443" depart="443.00">
        <route edges="-20 -13 -14 -16 -17 -21 -7 -4 -3 -12 -9 -11 -10 -6 -18 -15 -19 -5"/>
    </vehicle>
    <vehicle id="446" depart="446.00">
        <route edges="-17 -21 -7 -4 -3 -12 -9 -11 -10 -6"/>
    </vehicle>
    <vehicle id="448" depart="448.00">
        <route edges="-6"/>
    </vehicle>
    <vehicle id="450" depart="450.00">
        <route edges="-20 -13 -14 -16 -17 -21 -7 -4 -3 -12 -9 -11 -10 -6 -18 -15 -19 -5"/>
    </vehicle>
    <vehicle id="454" depart="454.00">
        <route edges="-16 -17 -21 -7 -4 -3 -12 -9 -11 -10 -6 -18 -15 -19"/>
    </vehicle>
    <vehicle id="456" depart="456.00">
        <route edges="-19"/>
    </vehicle>
    <vehicle id="457" depart="457.00">
        <route edges="-2 -8 -20 -13 -14 -16 -17"/>
    </vehicle>
    <vehicle id="459" depart="459.00">
        <route edges="-18 -15 -19"/>
    </vehicle>
    <vehicle id="460" depart="460.00">
        <route edges="-18 -15 -19 -5"/>
    </vehicle>
    <vehicle id="461" depart="461.00">
        <route edges="-20 -13 -14 -16 -17 -21 -7 -4 -3 -12 -9 -11 -10 -6"/>
    </vehicle>
    <vehicle id="463" depart="463.00">
        <route edges="-14 -16 -17 -21 -7 -4 -3 -12 -9 -11 -10 -6 -18 -15 -19"/>
    </vehicle>
    <vehicle id="464" depart="464.00">
        <route edges="-20 -13 -14 -16 -17 -21 -7 -4 -3 -12 -9 -11 -10 -6 -18 -15 -19 -5"/>
    </vehicle>
    <vehicle id="467" depart="467.00">
        <route edges="-19 -5 -1"/>
    </vehicle>
    <vehicle id="469" depart="469.00">
        <route edges="-20 -13 -14 -16 -17 -21 -7 -4 -3 -12 -9 -11 -10 -6 -18 -15 -19 -5"/>
    </vehicle>
    <vehicle id="471" depart="471.00">
        <route edges="-16 -17 -21 -7 -4 -3 -12 -9 -11 -10 -6"/>
    </vehicle>
    <vehicle id="473" depart="473.00">
        <route edges="-20 -13 -14"/>
    </vehicle>