<?xml version="1.0" encoding="UTF-8"?>

<!-- generated on Tue Sep  5 13:59:52 2017 by SUMO polyconvert Version 0.21.0
<?xml version="1.0" encoding="UTF-8"?>

<configuration xmlns:xsi="http://www.w3.org/2001/XMLSchema-instance" xsi:noNamespaceSchemaLocation="http://sumo-sim.org/xsd/polyconvertConfiguration.xsd">

    <input>
        <net-file value="flinders.net.xml"/>
        <osm-files value="flinders.osm"/>
        <type-file value="typemap.xml"/>
    </input>

    <output>
        <output-file value="flinders.poly.xml"/>
    </output>

</configuration>
-->

<additional xmlns:xsi="http://www.w3.org/2001/XMLSchema-instance" xsi:noNamespaceSchemaLocation="http://sumo-sim.org/xsd/additional_file.xsd">
    <poly id="-1" type="unknown" color="51,128,255" fill="0" layer="-1.00" shape="1777.83,703.63 1792.11,709.15 1884.21,745.05 1893.79,748.77 1913.53,756.47 1983.90,783.90 1993.60,787.69 1997.23,789.10"/>
    <poly id="-10" type="unknown" color="51,128,255" fill="0" layer="-1.00" shape="149.52,65.72 161.40,70.56 203.40,86.03 253.81,106.57 257.27,108.25 263.73,110.41"/>
    <poly id="-11" type="unknown" color="51,128,255" fill="0" layer="-1.00" shape="30.89,21.46 40.59,22.87 56.50,27.89 100.72,45.43 137.45,60.70 149.52,65.72"/>
    <poly id="-12" type="unknown" color="51,128,255" fill="0" layer="-1.00" shape="16.00,2.02 -0.00,19.53"/>
    <poly id="-13" type="unknown" color="51,128,255" fill="0" layer="-1.00" shape="1365.75,522.62 1351.96,516.84"/>
    <poly id="-14" type="unknown" color="51,128,255" fill="0" layer="-1.00" shape="1351.96,516.84 1337.15,510.78 1261.10,481.37 1238.53,472.47 1235.46,471.26 1161.59,442.13 1156.60,440.17 1153.19,438.82 1132.53,430.67 1130.48,429.86 1073.58,407.43 944.90,356.68 928.91,350.38"/>
    <poly id="-15" type="unknown" color="51,128,255" fill="0" layer="-1.00" shape="915.68,363.72 929.00,369.00"/>
    <poly id="-16" type="unknown" color="51,128,255" fill="0" layer="-1.00" shape="928.91,350.38 881.32,331.22 841.47,315.18"/>
    <poly id="-17" type="unknown" color="51,128,255" fill="0" layer="-1.00" shape="841.47,315.18 814.18,304.44 811.57,303.41 807.26,301.83 804.27,300.72 798.18,298.48 792.73,296.55 732.97,275.43 723.87,272.21 698.58,263.27 676.27,256.06 623.48,238.50 610.65,233.22 599.34,228.34 585.30,222.07 576.07,217.51 566.06,211.96 555.41,206.51 543.49,199.86 527.89,192.78 513.04,187.60 508.93,186.01 502.13,183.70 488.19,179.14 481.34,176.86 476.76,175.43 468.27,172.75 465.44,171.81 431.90,158.50 421.23,154.29 415.54,152.03 374.33,135.57 367.64,132.91 357.29,128.25 345.33,121.63 336.80,117.42 324.23,112.37 297.20,102.20 292.60,100.51 287.31,98.55"/>
    <poly id="-18" type="unknown" color="51,128,255" fill="0" layer="-1.00" shape="793.43,316.07 797.72,317.74 800.71,318.90 804.90,320.54 811.50,323.11 818.64,325.90 832.14,331.16 869.85,345.86 915.68,363.72"/>
    <poly id="-19" type="unknown" color="51,128,255" fill="0" layer="-1.00" shape="929.00,369.00 962.24,381.99 969.54,384.85 1067.68,423.72 1103.88,437.52 1119.42,443.67 1129.68,447.50 1136.86,450.47 1144.06,453.29 1150.25,455.70 1219.83,482.99 1230.48,487.16 1236.89,489.68 1293.75,511.98 1328.88,525.74 1339.06,529.74 1351.69,534.62 1353.13,535.25 1354.36,535.73 1355.66,536.25 1356.96,536.76 1365.62,540.13 1386.08,548.27 1406.00,556.20 1422.75,562.85 1519.66,600.27 1551.88,612.85 1561.34,616.54"/>
    <poly id="-2" type="unknown" color="51,128,255" fill="0" layer="-1.00" shape="2018.30,774.87 2005.68,773.48 1994.95,770.77 1978.89,765.32 1935.02,747.83 1914.42,739.55 1876.30,724.76 1811.54,699.16 1798.52,693.98 1790.25,690.55 1784.32,688.09"/>
    <poly id="-20" type="unknown" color="51,128,255" fill="0" layer="-1.00" shape="1578.56,606.83 1525.33,585.77 1378.45,527.66 1373.08,525.54 1365.75,522.62"/>
    <poly id="-21" type="unknown" color="51,128,255" fill="0" layer="-1.00" shape="287.31,98.55 280.15,96.13 274.35,94.17 268.27,92.11"/>
    <poly id="-3" type="unknown" color="51,128,255" fill="0" layer="-1.00" shape="114.88,26.75 92.10,18.37 55.68,3.87 46.81,1.91 37.33,0.60 28.72,-0.00 16.00,2.02"/>
    <poly id="-4" type="unknown" color="51,128,255" fill="0" layer="-1.00" shape="214.36,65.97 204.75,62.21 189.58,56.28 169.57,49.51 146.23,38.94 114.88,26.75"/>
    <poly id="-5" type="unknown" color="51,128,255" fill="0" layer="-1.00" shape="1561.34,616.54 1576.88,622.77 1607.72,635.17 1767.14,699.32 1777.83,703.63"/>
    <poly id="-6" type="unknown" color="51,128,255" fill="0" layer="-1.00" shape="263.73,110.41 267.86,111.83 269.98,112.55 272.86,113.54 276.03,114.62 280.63,116.20 285.83,118.28 301.29,124.40 352.02,144.51 418.79,170.71 445.18,181.10 473.14,192.14 475.80,193.11 482.09,196.37 494.25,202.96 501.26,205.69 550.55,225.61 621.89,253.17 685.38,277.78 697.68,282.55 713.46,288.08 783.43,312.57 785.71,313.37 793.43,316.07"/>
    <poly id="-7" type="unknown" color="51,128,255" fill="0" layer="-1.00" shape="268.27,92.11 262.95,89.87 234.92,78.10 214.36,65.97"/>
    <poly id="-8" type="unknown" color="51,128,255" fill="0" layer="-1.00" shape="1784.32,688.09 1686.46,649.44 1592.46,612.32 1578.56,606.83"/>
    <poly id="-9" type="unknown" color="51,128,255" fill="0" layer="-1.00" shape="-0.00,19.53 30.89,21.46"/>
</additional>
