<?xml version="1.0" encoding="UTF-8"?>

<!-- generated on Tue Sep  5 17:19:25 2017 by SUMO netconvert Version 0.30.0
<?xml version="1.0" encoding="UTF-8"?>

<configuration xmlns:xsi="http://www.w3.org/2001/XMLSchema-instance" xsi:noNamespaceSchemaLocation="http://sumo.dlr.de/xsd/netconvertConfiguration.xsd">

    <input>
        <osm-files value="flinders.osm"/>
    </input>

    <output>
        <output-file value="flinders.net.xml"/>
    </output>

    <projection>
        <proj.utm value="true"/>
    </projection>

    <processing>
        <lefthand value="true"/>
    </processing>

</configuration>
-->

<net version="0.27" lefthand="true" xmlns:xsi="http://www.w3.org/2001/XMLSchema-instance" xsi:noNamespaceSchemaLocation="http://sumo.dlr.de/xsd/net_file.xsd">

    <location netOffset="-319739.77,4188036.65" convBoundary="0.00,-0.00,2018.30,789.10" origBoundary="144.951916,-37.821958,144.975020,-37.815237" projParameter="+proj=utm +zone=55 +ellps=WGS84 +datum=WGS84 +units=m +no_defs"/>

    <type id="highway.bridleway" priority="1" numLanes="1" speed="2.78" allow="pedestrian" oneway="1" width="2.00"/>
    <type id="highway.bus_guideway" priority="1" numLanes="1" speed="8.33" allow="bus" oneway="1"/>
    <type id="highway.cycleway" priority="1" numLanes="1" speed="5.56" allow="bicycle" oneway="0" width="1.00"/>
    <type id="highway.footway" priority="1" numLanes="1" speed="2.78" allow="pedestrian" oneway="1" width="2.00"/>
    <type id="highway.ford" priority="1" numLanes="1" speed="2.78" allow="army" oneway="0"/>
    <type id="highway.living_street" priority="3" numLanes="1" speed="2.78" disallow="tram rail_urban rail rail_electric ship" oneway="0"/>
    <type id="highway.motorway" priority="13" numLanes="2" speed="44.44" allow="private emergency authority army vip passenger hov taxi bus coach delivery truck trailer motorcycle evehicle custom1 custom2" oneway="1"/>
    <type id="highway.motorway_link" priority="12" numLanes="1" speed="22.22" allow="private emergency authority army vip passenger hov taxi bus coach delivery truck trailer motorcycle evehicle custom1 custom2" oneway="1"/>
    <type id="highway.path" priority="1" numLanes="1" speed="2.78" allow="bicycle pedestrian" oneway="1" width="2.00"/>
    <type id="highway.pedestrian" priority="1" numLanes="1" speed="2.78" allow="pedestrian" oneway="1" width="2.00"/>
    <type id="highway.primary" priority="9" numLanes="2" speed="27.78" disallow="tram rail_urban rail rail_electric ship" oneway="0"/>
    <type id="highway.primary_link" priority="8" numLanes="1" speed="22.22" disallow="tram rail_urban rail rail_electric ship" oneway="0"/>
    <type id="highway.raceway" priority="14" numLanes="2" speed="83.33" allow="vip" oneway="0"/>
    <type id="highway.residential" priority="4" numLanes="1" speed="13.89" disallow="tram rail_urban rail rail_electric ship" oneway="0"/>
    <type id="highway.secondary" priority="7" numLanes="2" speed="27.78" disallow="tram rail_urban rail rail_electric ship" oneway="0"/>
    <type id="highway.secondary_link" priority="6" numLanes="1" speed="22.22" disallow="tram rail_urban rail rail_electric ship" oneway="0"/>
    <type id="highway.service" priority="2" numLanes="1" speed="5.56" allow="delivery bicycle pedestrian" oneway="0"/>
    <type id="highway.services" priority="1" numLanes="1" speed="8.33" disallow="tram rail_urban rail rail_electric ship" oneway="0"/>
    <type id="highway.stairs" priority="1" numLanes="1" speed="1.39" allow="pedestrian" oneway="1" width="2.00"/>
    <type id="highway.step" priority="1" numLanes="1" speed="1.39" allow="pedestrian" oneway="1" width="2.00"/>
    <type id="highway.steps" priority="1" numLanes="1" speed="1.39" allow="pedestrian" oneway="1" width="2.00"/>
    <type id="highway.tertiary" priority="6" numLanes="1" speed="22.22" disallow="tram rail_urban rail rail_electric ship" oneway="0"/>
    <type id="highway.tertiary_link" priority="5" numLanes="1" speed="22.22" disallow="tram rail_urban rail rail_electric ship" oneway="0"/>
    <type id="highway.track" priority="1" numLanes="1" speed="5.56" disallow="tram rail_urban rail rail_electric ship" oneway="0"/>
    <type id="highway.trunk" priority="11" numLanes="2" speed="27.78" disallow="tram rail_urban rail rail_electric bicycle pedestrian ship" oneway="0"/>
    <type id="highway.trunk_link" priority="10" numLanes="1" speed="22.22" disallow="tram rail_urban rail rail_electric bicycle pedestrian ship" oneway="0"/>
    <type id="highway.unclassified" priority="5" numLanes="1" speed="13.89" disallow="tram rail_urban rail rail_electric ship" oneway="0"/>
    <type id="highway.unsurfaced" priority="1" numLanes="1" speed="8.33" disallow="tram rail_urban rail rail_electric ship" oneway="0"/>
    <type id="railway.light_rail" priority="15" numLanes="1" speed="27.78" allow="rail_urban" oneway="1"/>
    <type id="railway.preserved" priority="15" numLanes="1" speed="27.78" allow="rail" oneway="1"/>
    <type id="railway.rail" priority="15" numLanes="1" speed="83.33" allow="rail rail_electric" oneway="1"/>
    <type id="railway.subway" priority="15" numLanes="1" speed="27.78" allow="rail_urban" oneway="1"/>
    <type id="railway.tram" priority="15" numLanes="1" speed="13.89" allow="tram" oneway="1"/>

    <edge id=":-1_0" function="internal">
        <lane id=":-1_0_0" index="0" disallow="tram rail_urban rail rail_electric ship" speed="11.11" length="0.29" shape="1777.08,705.11 1777.38,705.22"/>
        <lane id=":-1_0_1" index="1" disallow="tram rail_urban rail rail_electric ship" speed="11.11" length="0.29" shape="1778.32,702.05 1778.57,702.14"/>
    </edge>
    <edge id=":-133_0" function="internal">
        <lane id=":-133_0_0" index="0" disallow="tram rail_urban rail rail_electric ship" speed="11.11" length="0.26" shape="288.00,97.05 287.72,96.95"/>
        <lane id=":-133_0_1" index="1" disallow="tram rail_urban rail rail_electric ship" speed="11.11" length="0.26" shape="286.86,100.15 286.66,100.08"/>
    </edge>
    <edge id=":-19_0" function="internal">
        <lane id=":-19_0_0" index="0" disallow="tram rail_urban rail rail_electric ship" speed="11.11" length="3.54" shape="1785.70,688.67 1784.92,688.06 1784.62,687.33 1784.32,686.60 1783.54,686.01"/>
        <lane id=":-19_0_1" index="1" disallow="tram rail_urban rail rail_electric ship" speed="11.11" length="3.54" shape="1785.70,688.67 1784.73,688.55 1784.02,688.86 1783.30,689.19 1782.33,689.08"/>
    </edge>
    <edge id=":-20_0" function="internal">
        <lane id=":-20_0_0" index="0" disallow="tram rail_urban rail rail_electric ship" speed="13.89" length="0.28" shape="115.01,26.81 114.75,26.71"/>
    </edge>
    <edge id=":-26_0" function="internal">
        <lane id=":-26_0_0" index="0" disallow="tram rail_urban rail rail_electric bicycle pedestrian ship" speed="13.89" length="4.95" shape="20.65,1.28 14.79,0.90"/>
        <lane id=":-26_0_1" index="1" disallow="tram rail_urban rail rail_electric bicycle pedestrian ship" speed="13.89" length="4.95" shape="20.65,1.28 19.49,1.50 18.71,1.78 18.04,2.27 17.22,3.13"/>
    </edge>
    <edge id=":-27_0" function="internal">
        <lane id=":-27_0_0" index="0" disallow="tram rail_urban rail rail_electric ship" speed="13.89" length="2.29" shape="214.26,67.83 213.55,65.66"/>
    </edge>
    <edge id=":-32_0" function="internal">
        <lane id=":-32_0_0" index="0" disallow="tram rail_urban rail rail_electric ship" speed="11.11" length="0.30" shape="1560.60,618.02 1560.86,618.13"/>
        <lane id=":-32_0_1" index="1" disallow="tram rail_urban rail rail_electric ship" speed="11.11" length="0.30" shape="1561.80,614.95 1562.09,615.06"/>
    </edge>
    <edge id=":-36_0" function="internal">
        <lane id=":-36_0_0" index="0" disallow="tram rail_urban rail rail_electric ship" speed="12.50" length="0.30" shape="263.07,111.94 263.34,112.03"/>
        <lane id=":-36_0_1" index="1" disallow="tram rail_urban rail rail_electric ship" speed="12.50" length="0.30" shape="264.11,108.81 264.40,108.90"/>
    </edge>
    <edge id=":-59_0" function="internal">
        <lane id=":-59_0_0" index="0" disallow="tram rail_urban rail rail_electric ship" speed="11.11" length="0.24" shape="792.78,317.59 792.95,317.65"/>
        <lane id=":-59_0_1" index="1" disallow="tram rail_urban rail rail_electric ship" speed="11.11" length="0.24" shape="793.87,314.48 794.14,314.58"/>
    </edge>
    <edge id=":-60_0" function="internal">
        <lane id=":-60_0_0" index="0" disallow="tram rail_urban rail rail_electric ship" speed="12.50" length="0.23" shape="268.91,90.58 268.80,90.54"/>
        <lane id=":-60_0_1" index="1" disallow="tram rail_urban rail rail_electric ship" speed="12.50" length="0.23" shape="267.85,93.71 267.53,93.59"/>
    </edge>
    <edge id=":-65_0" function="internal">
        <lane id=":-65_0_0" index="0" disallow="tram rail_urban rail rail_electric ship" speed="11.11" length="0.30" shape="1579.31,605.36 1579.03,605.25"/>
        <lane id=":-65_0_1" index="1" disallow="tram rail_urban rail rail_electric ship" speed="11.11" length="0.30" shape="1578.10,608.42 1577.82,608.31"/>
    </edge>
    <edge id=":-66_0" function="internal">
        <lane id=":-66_0_0" index="0" disallow="tram rail_urban rail rail_electric bicycle pedestrian ship" speed="13.89" length="8.75" shape="3.36,13.41 0.98,16.75 0.74,19.23 2.63,20.85 6.67,21.60"/>
        <lane id=":-66_0_1" index="1" disallow="tram rail_urban rail rail_electric bicycle pedestrian ship" speed="13.89" length="8.75" shape="5.80,15.63 5.02,16.72 4.94,17.54 5.56,18.06 6.88,18.31"/>
    </edge>
    <edge id=":-67_0" function="internal">
        <lane id=":-67_0_0" index="0" disallow="tram rail_urban rail rail_electric ship" speed="13.89" length="0.27" shape="30.65,23.10 30.78,23.12"/>
        <lane id=":-67_0_1" index="1" disallow="tram rail_urban rail rail_electric ship" speed="13.89" length="0.27" shape="30.86,19.81 31.26,19.85"/>
    </edge>
    <edge id=":-68_0" function="internal">
        <lane id=":-68_0_0" index="0" disallow="tram rail_urban rail rail_electric ship" speed="13.89" length="0.30" shape="148.75,67.20 149.03,67.31"/>
        <lane id=":-68_0_1" index="1" disallow="tram rail_urban rail rail_electric ship" speed="13.89" length="0.30" shape="150.02,64.15 150.28,64.26"/>
    </edge>
    <edge id=":-77_0" function="internal">
        <lane id=":-77_0_0" index="0" disallow="tram rail_urban rail rail_electric ship" speed="11.11" length="0.28" shape="1366.49,521.15 1366.26,521.05"/>
        <lane id=":-77_0_1" index="1" disallow="tram rail_urban rail rail_electric ship" speed="11.11" length="0.28" shape="1365.27,524.21 1364.98,524.10"/>
    </edge>
    <edge id=":-78_0" function="internal">
        <lane id=":-78_0_0" index="0" disallow="tram rail_urban rail rail_electric ship" speed="11.11" length="0.30" shape="1352.73,515.38 1352.45,515.26"/>
        <lane id=":-78_0_1" index="1" disallow="tram rail_urban rail rail_electric ship" speed="11.11" length="0.30" shape="1351.46,518.42 1351.20,518.32"/>
    </edge>
    <edge id=":-90_0" function="internal">
        <lane id=":-90_0_0" index="0" disallow="tram rail_urban rail rail_electric ship" speed="11.11" length="0.30" shape="929.65,348.90 929.39,348.79"/>
        <lane id=":-90_0_1" index="1" disallow="tram rail_urban rail rail_electric ship" speed="11.11" length="0.30" shape="928.44,351.97 928.15,351.86"/>
    </edge>
    <edge id=":-91_0" function="internal">
        <lane id=":-91_0_0" index="0" disallow="tram rail_urban rail rail_electric ship" speed="11.11" length="0.30" shape="914.94,365.21 915.21,365.31"/>
        <lane id=":-91_0_1" index="1" disallow="tram rail_urban rail rail_electric ship" speed="11.11" length="0.30" shape="916.14,362.13 916.43,362.25"/>
    </edge>
    <edge id=":-92_0" function="internal">
        <lane id=":-92_0_0" index="0" disallow="tram rail_urban rail rail_electric ship" speed="11.11" length="0.30" shape="928.25,370.48 928.53,370.59"/>
        <lane id=":-92_0_1" index="1" disallow="tram rail_urban rail rail_electric ship" speed="11.11" length="0.30" shape="929.46,367.41 929.74,367.52"/>
    </edge>
    <edge id=":-94_0" function="internal">
        <lane id=":-94_0_0" index="0" disallow="tram rail_urban rail rail_electric ship" speed="11.11" length="0.30" shape="842.22,313.71 841.93,313.60"/>
        <lane id=":-94_0_1" index="1" disallow="tram rail_urban rail rail_electric ship" speed="11.11" length="0.30" shape="840.99,316.78 840.72,316.67"/>
    </edge>

    <edge id="-1" from="-1" to="-8" priority="6" type="highway.tertiary" spreadType="center" shape="1777.84,703.63 1792.11,709.16 1884.21,745.05 1893.79,748.78 1913.53,756.48 1983.90,783.90 1993.60,787.69 1997.24,789.10">
        <lane id="-1_0" index="0" disallow="tram rail_urban rail rail_electric ship" speed="11.11" length="235.31" shape="1777.38,705.22 1791.52,710.70 1883.61,746.59 1893.19,750.32 1912.94,758.02 1983.30,785.44 1993.00,789.23 1996.64,790.64"/>
        <lane id="-1_1" index="1" disallow="tram rail_urban rail rail_electric ship" speed="11.11" length="235.31" shape="1778.57,702.14 1792.71,707.62 1884.81,743.51 1894.39,747.24 1914.13,754.94 1984.50,782.37 1994.20,786.15 1997.83,787.56"/>
    </edge>
    <edge id="-10" from="-68" to="-36" priority="6" type="highway.tertiary" spreadType="center" shape="149.52,65.73 161.40,70.56 203.40,86.04 253.81,106.57 257.27,108.26 263.73,110.42">
        <lane id="-10_0" index="0" disallow="tram rail_urban rail rail_electric ship" speed="13.89" length="122.38" shape="149.03,67.31 160.80,72.10 202.81,87.58 253.14,108.08 256.64,109.79 263.07,111.94"/>
        <lane id="-10_1" index="1" disallow="tram rail_urban rail rail_electric ship" speed="13.89" length="122.38" shape="150.28,64.26 161.99,69.02 204.00,84.50 254.48,105.06 257.90,106.73 264.11,108.81"/>
    </edge>
    <edge id="-11" from="-67" to="-68" priority="6" type="highway.tertiary" spreadType="center" shape="30.89,21.46 40.60,22.88 56.50,27.90 100.72,45.43 137.45,60.70 149.52,65.73">
        <lane id="-11_0" index="0" disallow="tram rail_urban rail rail_electric ship" speed="13.89" length="126.63" shape="30.78,23.12 40.23,24.49 55.95,29.45 100.10,46.96 136.82,62.23 148.75,67.20"/>
        <lane id="-11_1" index="1" disallow="tram rail_urban rail rail_electric ship" speed="13.89" length="126.63" shape="31.26,19.85 40.96,21.26 57.06,26.34 101.34,43.90 138.08,59.18 150.02,64.15"/>
    </edge>
    <edge id="-12" from="-26" to="-66" priority="11" type="highway.trunk" spreadType="center">
        <lane id="-12_0" index="0" disallow="tram rail_urban rail rail_electric bicycle pedestrian ship" speed="13.89" length="16.94" shape="14.79,0.90 3.36,13.41"/>
        <lane id="-12_1" index="1" disallow="tram rail_urban rail rail_electric bicycle pedestrian ship" speed="13.89" length="16.94" shape="17.22,3.13 5.80,15.63"/>
    </edge>
    <edge id="-13" from="-77" to="-78" priority="6" type="highway.tertiary" spreadType="center">
        <lane id="-13_0" index="0" disallow="tram rail_urban rail rail_electric ship" speed="11.11" length="14.66" shape="1366.26,521.05 1352.73,515.38"/>
        <lane id="-13_1" index="1" disallow="tram rail_urban rail rail_electric ship" speed="11.11" length="14.66" shape="1364.98,524.10 1351.46,518.42"/>
    </edge>
    <edge id="-14" from="-78" to="-90" priority="6" type="highway.tertiary" spreadType="center" shape="1351.96,516.84 1337.16,510.78 1261.10,481.37 1238.53,472.48 1235.46,471.27 1161.59,442.14 1156.60,440.17 1153.19,438.82 1132.53,430.68 1130.48,429.87 1073.58,407.43 944.90,356.68 928.91,350.38">
        <lane id="-14_0" index="0" disallow="tram rail_urban rail rail_electric ship" speed="11.11" length="454.33" shape="1352.45,515.26 1337.77,509.25 1261.70,479.84 1239.14,470.94 1236.06,469.73 1162.19,440.60 1157.21,438.64 1153.80,437.29 1133.13,429.14 1131.09,428.33 1074.18,405.90 945.50,355.14 929.65,348.90"/>
        <lane id="-14_1" index="1" disallow="tram rail_urban rail rail_electric ship" speed="11.11" length="454.33" shape="1351.20,518.32 1336.54,512.32 1260.50,482.91 1237.93,474.01 1234.85,472.80 1160.98,443.67 1155.99,441.71 1152.59,440.36 1131.92,432.21 1129.88,431.40 1072.97,408.97 944.29,358.21 928.44,351.97"/>
    </edge>
    <edge id="-15" from="-91" to="-92" priority="6" type="highway.tertiary" spreadType="center">
        <lane id="-15_0" index="0" disallow="tram rail_urban rail rail_electric ship" speed="11.11" length="14.02" shape="915.21,365.31 928.25,370.48"/>
        <lane id="-15_1" index="1" disallow="tram rail_urban rail rail_electric ship" speed="11.11" length="14.02" shape="916.43,362.25 929.46,367.41"/>
    </edge>
    <edge id="-16" from="-90" to="-94" priority="6" type="highway.tertiary" spreadType="center" shape="928.91,350.38 881.32,331.22 841.47,315.19">
        <lane id="-16_0" index="0" disallow="tram rail_urban rail rail_electric ship" speed="11.11" length="93.96" shape="929.39,348.79 881.94,329.69 842.22,313.71"/>
        <lane id="-16_1" index="1" disallow="tram rail_urban rail rail_electric ship" speed="11.11" length="93.96" shape="928.15,351.86 880.70,332.75 840.99,316.78"/>
    </edge>
    <edge id="-17" from="-94" to="-133" priority="6" type="highway.tertiary" spreadType="center" shape="841.47,315.19 814.18,304.45 811.57,303.41 807.26,301.83 804.28,300.72 798.18,298.48 792.73,296.55 732.97,275.43 723.87,272.21 698.58,263.28 676.27,256.06 623.48,238.50 610.65,233.22 599.34,228.35 585.30,222.08 576.07,217.51 566.06,211.97 555.41,206.51 543.49,199.86 527.89,192.78 513.04,187.60 508.93,186.01 502.13,183.70 488.19,179.14 481.34,176.86 476.76,175.43 468.28,172.76 465.44,171.82 431.90,158.51 421.23,154.30 415.54,152.03 374.33,135.58 367.64,132.91 357.29,128.25 345.33,121.63 336.80,117.42 324.23,112.38 297.20,102.20 292.60,100.51 287.31,98.56">
        <lane id="-17_0" index="0" disallow="tram rail_urban rail rail_electric ship" speed="11.11" length="595.54" shape="841.93,313.60 814.79,302.91 812.16,301.87 807.83,300.28 804.85,299.17 798.74,296.93 793.28,295.00 733.52,273.87 724.42,270.65 699.11,261.71 676.78,254.49 624.06,236.95 611.29,231.70 600.00,226.84 586.01,220.58 576.83,216.05 566.84,210.51 556.19,205.06 544.24,198.38 528.50,191.25 513.61,186.05 509.49,184.46 502.65,182.14 488.70,177.58 481.85,175.29 477.25,173.86 468.78,171.19 466.01,170.27 432.51,156.97 421.84,152.76 416.15,150.50 374.94,134.04 368.29,131.39 358.03,126.78 346.10,120.17 337.48,115.92 324.83,110.84 297.78,100.66 293.18,98.97 288.00,97.05"/>
        <lane id="-17_1" index="1" disallow="tram rail_urban rail rail_electric ship" speed="11.11" length="595.54" shape="840.72,316.67 813.58,305.98 810.98,304.95 806.69,303.38 803.70,302.27 797.62,300.03 792.18,298.11 732.42,276.98 723.32,273.77 698.05,264.84 675.75,257.63 622.91,240.05 610.01,234.74 598.67,229.86 584.60,223.57 575.30,218.97 565.29,213.42 554.63,207.97 542.75,201.33 527.28,194.31 512.47,189.15 508.36,187.57 501.60,185.27 487.67,180.71 480.83,178.43 476.26,177.00 467.77,174.33 464.88,173.37 431.29,160.04 420.62,155.83 414.92,153.56 373.72,137.11 367.00,134.43 356.55,129.73 344.57,123.09 336.13,118.93 323.64,113.91 296.62,103.75 292.03,102.06 286.86,100.15"/>
    </edge>
    <edge id="-18" from="-59" to="-91" priority="6" type="highway.tertiary" spreadType="center" shape="793.43,316.07 797.72,317.74 800.71,318.91 804.90,320.54 811.50,323.12 818.64,325.90 832.14,331.16 869.85,345.86 915.68,363.72">
        <lane id="-18_0" index="0" disallow="tram rail_urban rail rail_electric ship" speed="11.11" length="130.94" shape="792.95,317.65 797.12,319.28 800.11,320.44 804.30,322.08 810.90,324.65 818.04,327.44 831.54,332.70 869.25,347.40 914.94,365.21"/>
        <lane id="-18_1" index="1" disallow="tram rail_urban rail rail_electric ship" speed="11.11" length="130.94" shape="794.14,314.58 798.32,316.20 801.31,317.37 805.50,319.00 812.10,321.58 819.24,324.37 832.74,329.62 870.45,344.32 916.14,362.13"/>
    </edge>
    <edge id="-19" from="-92" to="-32" priority="6" type="highway.tertiary" spreadType="center" shape="929.00,369.00 962.24,381.99 969.54,384.85 1067.68,423.73 1103.88,437.53 1119.42,443.67 1129.68,447.50 1136.86,450.48 1144.06,453.29 1150.25,455.70 1219.83,482.99 1230.48,487.17 1236.89,489.68 1293.75,511.98 1328.88,525.75 1339.06,529.74 1351.69,534.62 1353.13,535.25 1354.36,535.74 1355.66,536.25 1356.96,536.76 1365.62,540.13 1386.08,548.27 1406.00,556.20 1422.75,562.86 1519.66,600.27 1551.88,612.85 1561.34,616.54">
        <lane id="-19_0" index="0" disallow="tram rail_urban rail rail_electric ship" speed="11.11" length="678.78" shape="928.53,370.59 961.64,383.53 968.94,386.39 1067.08,425.26 1103.28,439.06 1118.83,445.21 1129.08,449.04 1136.24,452.01 1143.46,454.83 1149.65,457.24 1219.23,484.53 1229.88,488.70 1236.29,491.22 1293.15,513.52 1328.27,527.28 1338.46,531.28 1351.09,536.16 1352.49,536.78 1353.75,537.27 1355.06,537.79 1356.36,538.30 1365.02,541.67 1385.47,549.81 1405.39,557.73 1422.15,564.40 1519.07,601.81 1551.28,614.39 1560.60,618.02"/>
        <lane id="-19_1" index="1" disallow="tram rail_urban rail rail_electric ship" speed="11.11" length="678.78" shape="929.74,367.52 962.84,380.46 970.15,383.31 1068.28,422.19 1104.48,435.99 1120.01,442.13 1130.29,445.97 1137.48,448.95 1144.66,451.75 1150.85,454.16 1220.44,481.46 1231.08,485.63 1237.49,488.15 1294.36,510.44 1329.48,524.21 1339.66,528.20 1352.29,533.09 1353.76,533.73 1354.96,534.20 1356.26,534.72 1357.56,535.22 1366.23,538.60 1386.69,546.74 1406.61,554.67 1423.36,561.32 1520.26,598.73 1552.48,611.31 1561.80,614.95"/>
    </edge>
    <edge id="-2" from="-9" to="-19" priority="6" type="highway.tertiary" spreadType="center" shape="2018.30,774.87 2005.68,773.49 1994.95,770.78 1978.89,765.32 1935.02,747.83 1914.42,739.56 1876.30,724.76 1811.54,699.17 1798.52,693.99 1790.26,690.56 1784.32,688.10">
        <lane id="-2_0" index="0" disallow="tram rail_urban rail rail_electric ship" speed="11.11" length="248.57" shape="2018.30,774.87 2005.68,773.49 1994.95,770.78 1978.89,765.32 1935.02,747.83 1914.42,739.56 1876.30,724.76 1811.54,699.17 1798.52,693.99 1790.26,690.56 1785.70,688.67"/>
    </edge>
    <edge id="-20" from="-65" to="-77" priority="6" type="highway.tertiary" spreadType="center" shape="1578.56,606.83 1525.33,585.77 1378.45,527.67 1373.08,525.54 1365.75,522.63">
        <lane id="-20_0" index="0" disallow="tram rail_urban rail rail_electric ship" speed="11.11" length="228.58" shape="1579.03,605.25 1525.94,584.24 1379.06,526.13 1373.69,524.01 1366.49,521.15"/>
        <lane id="-20_1" index="1" disallow="tram rail_urban rail rail_electric ship" speed="11.11" length="228.58" shape="1577.82,608.31 1524.73,587.31 1377.85,529.20 1372.48,527.08 1365.27,524.21"/>
    </edge>
    <edge id="-21" from="-133" to="-60" priority="6" type="highway.tertiary" spreadType="center" shape="287.31,98.56 280.15,96.13 274.35,94.18 268.27,92.11">
        <lane id="-21_0" index="0" disallow="tram rail_urban rail rail_electric ship" speed="11.11" length="19.86" shape="287.72,96.95 280.68,94.57 274.88,92.61 268.91,90.58"/>
        <lane id="-21_1" index="1" disallow="tram rail_urban rail rail_electric ship" speed="11.11" length="19.86" shape="286.66,100.08 279.62,97.70 273.83,95.74 267.85,93.71"/>
    </edge>
    <edge id="-3" from="-20" to="-26" priority="6" type="highway.tertiary" spreadType="center" shape="114.88,26.76 92.10,18.38 55.68,3.88 46.81,1.92 37.33,0.60 28.72,-0.00 16.00,2.02">
        <lane id="-3_0" index="0" disallow="tram rail_urban rail rail_electric ship" speed="13.89" length="98.79" shape="114.75,26.71 92.10,18.38 55.68,3.88 46.81,1.92 37.33,0.60 28.72,-0.00 20.65,1.28"/>
    </edge>
    <edge id="-4" from="-27" to="-20" priority="6" type="highway.tertiary" spreadType="center" shape="214.36,65.97 204.75,62.21 189.58,56.28 169.57,49.52 146.23,38.95 114.88,26.76">
        <lane id="-4_0" index="0" disallow="tram rail_urban rail rail_electric ship" speed="13.89" length="105.98" shape="213.55,65.66 204.75,62.21 189.58,56.28 169.57,49.52 146.23,38.95 115.01,26.81"/>
    </edge>
    <edge id="-5" from="-32" to="-1" priority="6" type="highway.tertiary" spreadType="center" shape="1561.34,616.54 1576.88,622.77 1607.72,635.18 1767.14,699.32 1777.84,703.63">
        <lane id="-5_0" index="0" disallow="tram rail_urban rail rail_electric ship" speed="11.11" length="233.07" shape="1560.86,618.13 1576.26,624.30 1607.11,636.71 1766.52,700.85 1777.08,705.11"/>
        <lane id="-5_1" index="1" disallow="tram rail_urban rail rail_electric ship" speed="11.11" length="233.07" shape="1562.09,615.06 1577.49,621.24 1608.34,633.65 1767.76,697.79 1778.32,702.05"/>
    </edge>
    <edge id="-6" from="-36" to="-59" priority="6" type="highway.tertiary" spreadType="center" shape="263.73,110.42 267.87,111.83 269.98,112.55 272.86,113.55 276.03,114.63 280.63,116.21 285.83,118.28 301.29,124.41 352.02,144.51 418.79,170.71 445.18,181.10 473.14,192.15 475.80,193.12 482.09,196.37 494.25,202.97 501.26,205.70 550.55,225.61 621.89,253.17 685.38,277.79 697.68,282.55 713.46,288.08 783.43,312.58 785.71,313.37 793.43,316.07">
        <lane id="-6_0" index="0" disallow="tram rail_urban rail rail_electric ship" speed="11.11" length="568.19" shape="263.34,112.03 267.33,113.39 269.44,114.11 272.32,115.11 275.50,116.19 280.05,117.75 285.22,119.82 300.68,125.94 351.41,146.05 418.19,172.25 444.57,182.64 472.54,193.68 475.14,194.63 481.31,197.83 493.55,204.47 500.65,207.23 549.95,227.15 621.30,254.71 684.79,279.33 697.11,284.10 712.92,289.64 782.89,314.14 785.16,314.93 792.78,317.59"/>
        <lane id="-6_1" index="1" disallow="tram rail_urban rail rail_electric ship" speed="11.11" length="568.19" shape="264.40,108.90 268.40,110.27 270.52,110.99 273.39,111.99 276.56,113.07 281.20,114.66 286.44,116.75 301.90,122.87 352.62,142.98 419.39,169.17 445.78,179.57 473.75,190.61 476.46,191.60 482.86,194.92 494.94,201.47 501.87,204.16 551.16,224.08 622.49,251.64 685.98,276.25 698.25,281.00 714.01,286.52 783.98,311.02 786.25,311.81 793.87,314.48"/>
    </edge>
    <edge id="-7" from="-60" to="-27" priority="6" type="highway.tertiary" spreadType="center" shape="268.27,92.11 262.95,89.87 234.92,78.10 214.36,65.97">
        <lane id="-7_0" index="0" disallow="tram rail_urban rail rail_electric ship" speed="13.89" length="59.07" shape="268.80,90.54 263.59,88.35 235.66,76.62 215.94,64.99"/>
        <lane id="-7_1" index="1" disallow="tram rail_urban rail rail_electric ship" speed="13.89" length="59.07" shape="267.53,93.59 262.31,91.39 234.18,79.58 214.26,67.83"/>
    </edge>
    <edge id="-8" from="-19" to="-65" priority="6" type="highway.tertiary" spreadType="center" shape="1784.32,688.10 1686.46,649.45 1592.46,612.32 1578.56,606.83">
        <lane id="-8_0" index="0" disallow="tram rail_urban rail rail_electric ship" speed="11.11" length="219.58" shape="1783.54,686.01 1687.06,647.91 1593.06,610.79 1579.31,605.36"/>
        <lane id="-8_1" index="1" disallow="tram rail_urban rail rail_electric ship" speed="11.11" length="219.58" shape="1782.33,689.08 1685.85,650.98 1591.85,613.86 1578.10,608.42"/>
    </edge>
    <edge id="-9" from="-66" to="-67" priority="11" type="highway.trunk" spreadType="center">
        <lane id="-9_0" index="0" disallow="tram rail_urban rail rail_electric bicycle pedestrian ship" speed="13.89" length="24.03" shape="6.67,21.60 30.65,23.10"/>
        <lane id="-9_1" index="1" disallow="tram rail_urban rail rail_electric bicycle pedestrian ship" speed="13.89" length="24.03" shape="6.88,18.31 30.86,19.81"/>
    </edge>

    <junction id="-1" type="priority" x="1777.84" y="703.63" incLanes="-5_0 -5_1" intLanes=":-1_0_0 :-1_0_1" shape="1779.14,700.65 1776.80,706.71 1776.49,706.59 1778.91,700.56">
        <request index="0" response="00" foes="00" cont="0"/>
        <request index="1" response="00" foes="00" cont="0"/>
    </junction>
    <junction id="-133" type="priority" x="287.31" y="98.56" incLanes="-17_0 -17_1" intLanes=":-133_0_0 :-133_0_1" shape="288.56,95.55 286.30,101.65 286.15,101.59 288.23,95.44">
        <request index="0" response="00" foes="00" cont="0"/>
        <request index="1" response="00" foes="00" cont="0"/>
    </junction>
    <junction id="-19" type="priority" x="1784.32" y="688.10" incLanes="-2_0" intLanes=":-19_0_0 :-19_0_1" shape="1786.31,687.19 1785.09,690.15 1781.74,690.57 1784.13,684.52">
        <request index="0" response="00" foes="00" cont="0"/>
        <request index="1" response="00" foes="00" cont="0"/>
    </junction>
    <junction id="-20" type="priority" x="114.88" y="26.76" incLanes="-4_0" intLanes=":-20_0_0" shape="115.59,25.32 114.43,28.30 114.20,28.21 115.30,25.21">
        <request index="0" response="0" foes="0" cont="0"/>
    </junction>
    <junction id="-26" type="priority" x="16.00" y="2.02" incLanes="-3_0" intLanes=":-26_0_0 :-26_0_1" shape="20.40,-0.30 20.90,2.86 18.40,4.20 13.60,-0.18">
        <request index="0" response="00" foes="00" cont="0"/>
        <request index="1" response="00" foes="00" cont="0"/>
    </junction>
    <junction id="-27" type="priority" x="214.36" y="65.97" incLanes="-7_0 -7_1" intLanes=":-27_0_0" shape="216.75,63.61 213.45,69.21 212.97,67.15 214.13,64.17">
        <request index="0" response="0" foes="0" cont="0"/>
    </junction>
    <junction id="-32" type="priority" x="1561.34" y="616.54" incLanes="-19_0 -19_1" intLanes=":-32_0_0 :-32_0_1" shape="1562.68,613.58 1560.26,619.61 1560.02,619.51 1562.38,613.46">
        <request index="0" response="00" foes="00" cont="0"/>
        <request index="1" response="00" foes="00" cont="0"/>
    </junction>
    <junction id="-36" type="priority" x="263.73" y="110.42" incLanes="-10_0 -10_1" intLanes=":-36_0_0 :-36_0_1" shape="264.92,107.39 262.82,113.54 262.56,113.45 264.62,107.29">
        <request index="0" response="00" foes="00" cont="0"/>
        <request index="1" response="00" foes="00" cont="0"/>
    </junction>